   Input file: /Users/wangjincheng/Desktop/irp-jw21-main/Project_jw21/pqi/0.01ZnEdta.pqi
  Output file: /Users/wangjincheng/Desktop/irp-jw21-main/Project_jw21/pqo/0.01ZnEdta.pqi.pqi.out
Database file: /Users/wangjincheng/Desktop/irp-jw21-main/Project_jw21/phreeqc/database/minteq.v4.dat

------------------
Reading data base.
------------------

	SOLUTION_MASTER_SPECIES
	SOLUTION_SPECIES
	SOLUTION_SPECIES
	PHASES
	PHASES
	SURFACE_MASTER_SPECIES
	SURFACE_SPECIES
	END
------------------------------------
Reading input data for simulation 1.
------------------------------------

	DATABASE /Users/wangjincheng/Desktop/irp-jw21-main/Project_jw21/phreeqc/database/minteq.v4.dat
	TITLE 04_SURFACE_COMPLEXATION
	SOLUTION_MASTER_SPECIES
	Zn		Zn+2		0.0	Zn	65.39
	Edta		Edta-4		2.0	288.214	288.214
	END
-----
TITLE
-----

 04_SURFACE_COMPLEXATION

------------------
End of simulation.
------------------

------------------------------------
Reading input data for simulation 2.
------------------------------------

	SOLUTION_SPECIES
	Zn+2 + Edta-4 = Zn(Edta)-2
	log_k		17.283
	Zn+2 + Edta-4 + H+ = ZnH(Edta)-
	log_k		20.503
	Zn+2 + Edta-4 + H2O = ZnOH(Edta)-3 + H+
	log_k		5.352
	END
------------------
End of simulation.
------------------

------------------------------------
Reading input data for simulation 3.
------------------------------------

	SOLUTION 1
	pH		3.0
	Cl		0.01		mol/kgw
	Na		0.01		mol/kgw
	Zn	0.200 	mmol/kgw
	Edta  0.200 	mmol/kgw
	END
-------------------------------------------
Beginning of initial solution calculations.
-------------------------------------------

Initial solution 1.	

-----------------------------Solution composition------------------------------

	Elements           Molality       Moles

	Cl                1.000e-02   1.000e-02
	Edta              2.000e-04   2.000e-04
	Na                1.000e-02   1.000e-02
	Zn                2.000e-04   2.000e-04

----------------------------Description of solution----------------------------

                                       pH  =   3.000    
                                       pe  =   4.000    
                        Activity of water  =   1.000
                 Ionic strength (mol/kgw)  =   1.082e-02
                       Mass of water (kg)  =   1.000e+00
                 Total alkalinity (eq/kg)  =  -8.537e-04
                         Temperature (°C)  =  25.00
                  Electrical balance (eq)  =   8.537e-04
 Percent error, 100*(Cat-|An|)/(Cat+|An|)  =   3.98
                               Iterations  =   9
                                  Total H  = 1.110149e+02
                                  Total O  = 5.550683e+01

----------------------------Distribution of species----------------------------

                                               Log       Log       Log    mole V
   Species          Molality    Activity  Molality  Activity     Gamma   cm³/mol

   H+              1.113e-03   1.000e-03    -2.954    -3.000    -0.046      0.00
   OH-             1.123e-11   1.007e-11   -10.950   -10.997    -0.047     (0)  
   H2O             5.551e+01   9.996e-01     1.744    -0.000     0.000     18.07
Cl            1.000e-02
   Cl-             1.000e-02   8.986e-03    -2.000    -2.046    -0.046     (0)  
   ZnCl+           2.521e-07   2.264e-07    -6.599    -6.645    -0.047     (0)  
   ZnCl2           3.224e-09   3.224e-09    -8.492    -8.492     0.000     (0)  
   ZnCl3-          2.562e-11   2.301e-11   -10.591   -10.638    -0.047     (0)  
   ZnOHCl          2.983e-12   2.983e-12   -11.525   -11.525     0.000     (0)  
   ZnCl4-2         1.570e-13   1.034e-13   -12.804   -12.985    -0.181     (0)  
Edta          2.000e-04
   ZnH(Edta)-      1.007e-04   9.052e-05    -3.997    -4.043    -0.046     (0)  
   Zn(Edta)-2      8.364e-05   5.455e-05    -4.078    -4.263    -0.186     (0)  
   H2(Edta)-2      7.687e-06   4.716e-06    -5.114    -5.326    -0.212     (0)  
   H3(Edta)-       7.008e-06   6.202e-06    -5.154    -5.207    -0.053     (0)  
   H4(Edta)        8.965e-07   8.965e-07    -6.047    -6.047     0.000     (0)  
   H5(Edta)+       3.203e-08   2.835e-08    -7.494    -7.547    -0.053     (0)  
   H(Edta)-3       7.552e-09   2.515e-09    -8.122    -8.599    -0.478     (0)  
   ZnOH(Edta)-3    1.672e-13   6.392e-14   -12.777   -13.194    -0.418     (0)  
   Na(Edta)-3      3.834e-16   1.277e-16   -15.416   -15.894    -0.478     (0)  
   Edta-4          1.567e-16   2.835e-17   -15.805   -16.547    -0.742     (0)  
H(0)          1.412e-17
   H2              7.062e-18   7.079e-18   -17.151   -17.150     0.001     (0)  
Na            1.000e-02
   Na+             1.000e-02   8.987e-03    -2.000    -2.046    -0.046     (0)  
   Na(Edta)-3      3.834e-16   1.277e-16   -15.416   -15.894    -0.478     (0)  
O(0)          0.000e+00
   O2              0.000e+00   0.000e+00   -57.996   -57.995     0.001     (0)  
Zn            2.000e-04
   ZnH(Edta)-      1.007e-04   9.052e-05    -3.997    -4.043    -0.046     (0)  
   Zn(Edta)-2      8.364e-05   5.455e-05    -4.078    -4.263    -0.186     (0)  
   Zn+2            1.538e-05   1.003e-05    -4.813    -4.999    -0.186     (0)  
   ZnCl+           2.521e-07   2.264e-07    -6.599    -6.645    -0.047     (0)  
   ZnCl2           3.224e-09   3.224e-09    -8.492    -8.492     0.000     (0)  
   ZnCl3-          2.562e-11   2.301e-11   -10.591   -10.638    -0.047     (0)  
   ZnOH+           1.141e-11   1.009e-11   -10.943   -10.996    -0.053     (0)  
   ZnOHCl          2.983e-12   2.983e-12   -11.525   -11.525     0.000     (0)  
   ZnOH(Edta)-3    1.672e-13   6.392e-14   -12.777   -13.194    -0.418     (0)  
   ZnCl4-2         1.570e-13   1.034e-13   -12.804   -12.985    -0.181     (0)  
   Zn(OH)2         1.610e-17   1.610e-17   -16.793   -16.793     0.000     (0)  
   Zn(OH)3-        9.180e-25   8.124e-25   -24.037   -24.090    -0.053     (0)  
   Zn(OH)4-2       5.307e-34   3.255e-34   -33.275   -33.487    -0.212     (0)  

------------------------------Saturation indices-------------------------------

  Phase               SI** log IAP   log K(298 K,   1 atm)

  Halite           -5.70     -4.09    1.60  NaCl
  O2(g)           -55.09     28.00   83.09  O2
  Zincite         -10.33      1.00   11.33  ZnO
  Zn(OH)2         -11.20      1.00   12.20  Zn(OH)2
  Zn(OH)2(am)     -11.47      1.00   12.47  Zn(OH)2
  Zn(OH)2(beta)   -10.75      1.00   11.75  Zn(OH)2
  Zn(OH)2(epsilon) -10.53      1.00   11.53  Zn(OH)2
  Zn(OH)2(gamma)  -10.73      1.00   11.73  Zn(OH)2
  Zn2(OH)3Cl      -18.24     -3.04   15.19  Zn2(OH)3Cl
  Zn5(OH)8Cl2     -43.59     -5.09   38.50  Zn5(OH)8Cl2
  ZnCl2           -16.14     -9.09    7.05  ZnCl2
  Znmetal         -38.79    -13.00   25.79  Zn
  ZnO(active)     -10.19      1.00   11.19  ZnO

**For a gas, SI = log10(fugacity). Fugacity = pressure * phi / 1 atm.
  For ideal gases, phi = 1.

------------------
End of simulation.
------------------

------------------------------------
Reading input data for simulation 4.
------------------------------------

	SOLUTION 2
	pH		3.2
	Cl		0.01		mol/kgw
	Na		0.01		mol/kgw
	Zn	0.200 	mmol/kgw
	Edta  0.200 	mmol/kgw
	END
-------------------------------------------
Beginning of initial solution calculations.
-------------------------------------------

Initial solution 2.	

-----------------------------Solution composition------------------------------

	Elements           Molality       Moles

	Cl                1.000e-02   1.000e-02
	Edta              2.000e-04   2.000e-04
	Na                1.000e-02   1.000e-02
	Zn                2.000e-04   2.000e-04

----------------------------Description of solution----------------------------

                                       pH  =   3.200    
                                       pe  =   4.000    
                        Activity of water  =   1.000
                 Ionic strength (mol/kgw)  =   1.064e-02
                       Mass of water (kg)  =   1.000e+00
                 Total alkalinity (eq/kg)  =  -4.078e-04
                         Temperature (°C)  =  25.00
                  Electrical balance (eq)  =   4.078e-04
 Percent error, 100*(Cat-|An|)/(Cat+|An|)  =   1.94
                               Iterations  =   8
                                  Total H  = 1.110145e+02
                                  Total O  = 5.550683e+01

----------------------------Distribution of species----------------------------

                                               Log       Log       Log    mole V
   Species          Molality    Activity  Molality  Activity     Gamma   cm³/mol

   H+              7.016e-04   6.310e-04    -3.154    -3.200    -0.046      0.00
   OH-             1.778e-11   1.595e-11   -10.750   -10.797    -0.047     (0)  
   H2O             5.551e+01   9.996e-01     1.744    -0.000     0.000     18.07
Cl            1.000e-02
   Cl-             1.000e-02   8.993e-03    -2.000    -2.046    -0.046     (0)  
   ZnCl+           1.617e-07   1.453e-07    -6.791    -6.838    -0.046     (0)  
   ZnCl2           2.071e-09   2.071e-09    -8.684    -8.684     0.000     (0)  
   ZnCl3-          1.646e-11   1.480e-11   -10.784   -10.830    -0.046     (0)  
   ZnOHCl          3.035e-12   3.035e-12   -11.518   -11.518     0.000     (0)  
   ZnCl4-2         1.007e-13   6.654e-14   -12.997   -13.177    -0.180     (0)  
Edta          2.000e-04
   Zn(Edta)-2      1.079e-04   7.056e-05    -3.967    -4.151    -0.184     (0)  
   ZnH(Edta)-      8.215e-05   7.389e-05    -4.085    -4.131    -0.046     (0)  
   H2(Edta)-2      6.147e-06   3.786e-06    -5.211    -5.422    -0.210     (0)  
   H3(Edta)-       3.546e-06   3.142e-06    -5.450    -5.503    -0.053     (0)  
   H4(Edta)        2.865e-07   2.865e-07    -6.543    -6.543     0.000     (0)  
   H(Edta)-3       9.521e-09   3.200e-09    -8.021    -8.495    -0.474     (0)  
   H5(Edta)+       6.454e-09   5.717e-09    -8.190    -8.243    -0.053     (0)  
   ZnOH(Edta)-3    3.404e-13   1.310e-13   -12.468   -12.883    -0.415     (0)  
   Na(Edta)-3      7.667e-16   2.577e-16   -15.115   -15.589    -0.474     (0)  
   Edta-4          3.120e-16   5.717e-17   -15.506   -16.243    -0.737     (0)  
H(0)          5.623e-18
   H2              2.811e-18   2.818e-18   -17.551   -17.550     0.001     (0)  
Na            1.000e-02
   Na+             1.000e-02   8.994e-03    -2.000    -2.046    -0.046     (0)  
   Na(Edta)-3      7.667e-16   2.577e-16   -15.115   -15.589    -0.474     (0)  
O(0)          0.000e+00
   O2              0.000e+00   0.000e+00   -57.196   -57.195     0.001     (0)  
Zn            2.000e-04
   Zn(Edta)-2      1.079e-04   7.056e-05    -3.967    -4.151    -0.184     (0)  
   ZnH(Edta)-      8.215e-05   7.389e-05    -4.085    -4.131    -0.046     (0)  
   Zn+2            9.832e-06   6.432e-06    -5.007    -5.192    -0.184     (0)  
   ZnCl+           1.617e-07   1.453e-07    -6.791    -6.838    -0.046     (0)  
   ZnCl2           2.071e-09   2.071e-09    -8.684    -8.684     0.000     (0)  
   ZnCl3-          1.646e-11   1.480e-11   -10.784   -10.830    -0.046     (0)  
   ZnOH+           1.158e-11   1.026e-11   -10.936   -10.989    -0.053     (0)  
   ZnOHCl          3.035e-12   3.035e-12   -11.518   -11.518     0.000     (0)  
   ZnOH(Edta)-3    3.404e-13   1.310e-13   -12.468   -12.883    -0.415     (0)  
   ZnCl4-2         1.007e-13   6.654e-14   -12.997   -13.177    -0.180     (0)  
   Zn(OH)2         2.595e-17   2.595e-17   -16.586   -16.586     0.000     (0)  
   Zn(OH)3-        2.342e-24   2.075e-24   -23.630   -23.683    -0.053     (0)  
   Zn(OH)4-2       2.139e-33   1.318e-33   -32.670   -32.880    -0.210     (0)  

------------------------------Saturation indices-------------------------------

  Phase               SI** log IAP   log K(298 K,   1 atm)

  Halite           -5.69     -4.09    1.60  NaCl
  O2(g)           -54.29     28.80   83.09  O2
  Zincite         -10.13      1.21   11.33  ZnO
  Zn(OH)2         -10.99      1.21   12.20  Zn(OH)2
  Zn(OH)2(am)     -11.27      1.21   12.47  Zn(OH)2
  Zn(OH)2(beta)   -10.55      1.21   11.75  Zn(OH)2
  Zn(OH)2(epsilon) -10.33      1.21   11.53  Zn(OH)2
  Zn(OH)2(gamma)  -10.53      1.21   11.73  Zn(OH)2
  Zn2(OH)3Cl      -18.02     -2.83   15.19  Zn2(OH)3Cl
  Zn5(OH)8Cl2     -42.95     -4.45   38.50  Zn5(OH)8Cl2
  ZnCl2           -16.33     -9.28    7.05  ZnCl2
  Znmetal         -38.98    -13.19   25.79  Zn
  ZnO(active)      -9.98      1.21   11.19  ZnO

**For a gas, SI = log10(fugacity). Fugacity = pressure * phi / 1 atm.
  For ideal gases, phi = 1.

------------------
End of simulation.
------------------

------------------------------------
Reading input data for simulation 5.
------------------------------------

	SOLUTION 3
	pH		3.4
	Cl		0.01		mol/kgw
	Na		0.01		mol/kgw
	Zn	0.200 	mmol/kgw
	Edta  0.200 	mmol/kgw
	END
-------------------------------------------
Beginning of initial solution calculations.
-------------------------------------------

Initial solution 3.	

-----------------------------Solution composition------------------------------

	Elements           Molality       Moles

	Cl                1.000e-02   1.000e-02
	Edta              2.000e-04   2.000e-04
	Na                1.000e-02   1.000e-02
	Zn                2.000e-04   2.000e-04

----------------------------Description of solution----------------------------

                                       pH  =   3.400    
                                       pe  =   4.000    
                        Activity of water  =   1.000
                 Ionic strength (mol/kgw)  =   1.054e-02
                       Mass of water (kg)  =   1.000e+00
                 Total alkalinity (eq/kg)  =  -1.200e-04
                         Temperature (°C)  =  25.00
                  Electrical balance (eq)  =   1.200e-04
 Percent error, 100*(Cat-|An|)/(Cat+|An|)  =   0.58
                               Iterations  =   8
                                  Total H  = 1.110142e+02
                                  Total O  = 5.550683e+01

----------------------------Distribution of species----------------------------

                                               Log       Log       Log    mole V
   Species          Molality    Activity  Molality  Activity     Gamma   cm³/mol

   H+              4.425e-04   3.981e-04    -3.354    -3.400    -0.046      0.00
   OH-             2.816e-11   2.528e-11   -10.550   -10.597    -0.047     (0)  
   H2O             5.551e+01   9.996e-01     1.744    -0.000     0.000     18.07
Cl            1.000e-02
   Cl-             1.000e-02   8.998e-03    -2.000    -2.046    -0.046     (0)  
   ZnCl+           1.037e-07   9.328e-08    -6.984    -7.030    -0.046     (0)  
   ZnCl2           1.330e-09   1.330e-09    -8.876    -8.876     0.000     (0)  
   ZnCl3-          1.057e-11   9.507e-12   -10.976   -11.022    -0.046     (0)  
   ZnOHCl          3.088e-12   3.088e-12   -11.510   -11.510     0.000     (0)  
   ZnCl4-2         6.462e-14   4.277e-14   -13.190   -13.369    -0.179     (0)  
Edta          2.000e-04
   Zn(Edta)-2      1.307e-04   8.566e-05    -3.884    -4.067    -0.183     (0)  
   ZnH(Edta)-      6.290e-05   5.660e-05    -4.201    -4.247    -0.046     (0)  
   H2(Edta)-2      4.619e-06   2.852e-06    -5.335    -5.545    -0.209     (0)  
   H3(Edta)-       1.685e-06   1.493e-06    -5.774    -5.826    -0.052     (0)  
   H4(Edta)        8.593e-08   8.593e-08    -7.066    -7.066     0.000     (0)  
   H(Edta)-3       1.131e-08   3.821e-09    -7.947    -8.418    -0.471     (0)  
   H5(Edta)+       1.220e-09   1.082e-09    -8.914    -8.966    -0.052     (0)  
   ZnOH(Edta)-3    6.523e-13   2.521e-13   -12.186   -12.598    -0.413     (0)  
   Na(Edta)-3      1.444e-15   4.878e-16   -14.841   -15.312    -0.471     (0)  
   Edta-4          5.862e-16   1.082e-16   -15.232   -15.966    -0.734     (0)  
H(0)          2.239e-18
   H2              1.119e-18   1.122e-18   -17.951   -17.950     0.001     (0)  
Na            1.000e-02
   Na+             1.000e-02   8.998e-03    -2.000    -2.046    -0.046     (0)  
   Na(Edta)-3      1.444e-15   4.878e-16   -14.841   -15.312    -0.471     (0)  
O(0)          0.000e+00
   O2              0.000e+00   0.000e+00   -56.396   -56.395     0.001     (0)  
Zn            2.000e-04
   Zn(Edta)-2      1.307e-04   8.566e-05    -3.884    -4.067    -0.183     (0)  
   ZnH(Edta)-      6.290e-05   5.660e-05    -4.201    -4.247    -0.046     (0)  
   Zn+2            6.297e-06   4.127e-06    -5.201    -5.384    -0.183     (0)  
   ZnCl+           1.037e-07   9.328e-08    -6.984    -7.030    -0.046     (0)  
   ZnCl2           1.330e-09   1.330e-09    -8.876    -8.876     0.000     (0)  
   ZnOH+           1.177e-11   1.044e-11   -10.929   -10.981    -0.052     (0)  
   ZnCl3-          1.057e-11   9.507e-12   -10.976   -11.022    -0.046     (0)  
   ZnOHCl          3.088e-12   3.088e-12   -11.510   -11.510     0.000     (0)  
   ZnOH(Edta)-3    6.523e-13   2.521e-13   -12.186   -12.598    -0.413     (0)  
   ZnCl4-2         6.462e-14   4.277e-14   -13.190   -13.369    -0.179     (0)  
   Zn(OH)2         4.182e-17   4.182e-17   -16.379   -16.379     0.000     (0)  
   Zn(OH)3-        5.978e-24   5.299e-24   -23.223   -23.276    -0.052     (0)  
   Zn(OH)4-2       8.639e-33   5.334e-33   -32.064   -32.273    -0.209     (0)  

------------------------------Saturation indices-------------------------------

  Phase               SI** log IAP   log K(298 K,   1 atm)

  Halite           -5.69     -4.09    1.60  NaCl
  O2(g)           -53.49     29.60   83.09  O2
  Zincite          -9.92      1.42   11.33  ZnO
  Zn(OH)2         -10.78      1.42   12.20  Zn(OH)2
  Zn(OH)2(am)     -11.06      1.42   12.47  Zn(OH)2
  Zn(OH)2(beta)   -10.34      1.42   11.75  Zn(OH)2
  Zn(OH)2(epsilon) -10.12      1.42   11.53  Zn(OH)2
  Zn(OH)2(gamma)  -10.32      1.42   11.73  Zn(OH)2
  Zn2(OH)3Cl      -17.81     -2.62   15.19  Zn2(OH)3Cl
  Zn5(OH)8Cl2     -42.31     -3.81   38.50  Zn5(OH)8Cl2
  ZnCl2           -16.53     -9.48    7.05  ZnCl2
  Znmetal         -39.17    -13.38   25.79  Zn
  ZnO(active)      -9.77      1.42   11.19  ZnO

**For a gas, SI = log10(fugacity). Fugacity = pressure * phi / 1 atm.
  For ideal gases, phi = 1.

------------------
End of simulation.
------------------

------------------------------------
Reading input data for simulation 6.
------------------------------------

	SOLUTION 4
	pH		3.6
	Cl		0.01		mol/kgw
	Na		0.01		mol/kgw
	Zn	0.200 	mmol/kgw
	Edta  0.200 	mmol/kgw
	END
-------------------------------------------
Beginning of initial solution calculations.
-------------------------------------------

Initial solution 4.	

-----------------------------Solution composition------------------------------

	Elements           Molality       Moles

	Cl                1.000e-02   1.000e-02
	Edta              2.000e-04   2.000e-04
	Na                1.000e-02   1.000e-02
	Zn                2.000e-04   2.000e-04

----------------------------Description of solution----------------------------

                                       pH  =   3.600    
                                       pe  =   4.000    
                        Activity of water  =   1.000
                 Ionic strength (mol/kgw)  =   1.048e-02
                       Mass of water (kg)  =   1.000e+00
                 Total alkalinity (eq/kg)  =   6.625e-05
                         Temperature (°C)  =  25.00
                  Electrical balance (eq)  =  -6.625e-05
 Percent error, 100*(Cat-|An|)/(Cat+|An|)  =  -0.32
                               Iterations  =   9
                                  Total H  = 1.110140e+02
                                  Total O  = 5.550683e+01

----------------------------Distribution of species----------------------------

                                               Log       Log       Log    mole V
   Species          Molality    Activity  Molality  Activity     Gamma   cm³/mol

   H+              2.791e-04   2.512e-04    -3.554    -3.600    -0.046      0.00
   OH-             4.462e-11   4.007e-11   -10.350   -10.397    -0.047     (0)  
   H2O             5.551e+01   9.997e-01     1.744    -0.000     0.000     18.07
Cl            1.000e-02
   Cl-             1.000e-02   9.000e-03    -2.000    -2.046    -0.046     (0)  
   ZnCl+           6.644e-08   5.976e-08    -7.178    -7.224    -0.046     (0)  
   ZnCl2           8.525e-10   8.525e-10    -9.069    -9.069     0.000     (0)  
   ZnCl3-          6.775e-12   6.094e-12   -11.169   -11.215    -0.046     (0)  
   ZnOHCl          3.135e-12   3.135e-12   -11.504   -11.504     0.000     (0)  
   ZnCl4-2         4.139e-14   2.743e-14   -13.383   -13.562    -0.179     (0)  
Edta          2.000e-04
   Zn(Edta)-2      1.502e-04   9.858e-05    -3.823    -4.006    -0.183     (0)  
   ZnH(Edta)-      4.566e-05   4.109e-05    -4.340    -4.386    -0.046     (0)  
   H2(Edta)-2      3.299e-06   2.040e-06    -5.482    -5.690    -0.209     (0)  
   H3(Edta)-       7.599e-07   6.739e-07    -6.119    -6.171    -0.052     (0)  
   H4(Edta)        2.447e-08   2.447e-08    -7.611    -7.611     0.000     (0)  
   H(Edta)-3       1.278e-08   4.331e-09    -7.894    -8.363    -0.470     (0)  
   H5(Edta)+       2.192e-10   1.943e-10    -9.659    -9.711    -0.052     (0)  
   ZnOH(Edta)-3    1.187e-12   4.599e-13   -11.926   -12.337    -0.412     (0)  
   Na(Edta)-3      2.586e-15   8.766e-16   -14.587   -15.057    -0.470     (0)  
   Edta-4          1.049e-15   1.943e-16   -14.979   -15.711    -0.732     (0)  
H(0)          8.912e-19
   H2              4.456e-19   4.467e-19   -18.351   -18.350     0.001     (0)  
Na            1.000e-02
   Na+             1.000e-02   9.000e-03    -2.000    -2.046    -0.046     (0)  
   Na(Edta)-3      2.586e-15   8.766e-16   -14.587   -15.057    -0.470     (0)  
O(0)          0.000e+00
   O2              0.000e+00   0.000e+00   -55.596   -55.595     0.001     (0)  
Zn            2.000e-04
   Zn(Edta)-2      1.502e-04   9.858e-05    -3.823    -4.006    -0.183     (0)  
   ZnH(Edta)-      4.566e-05   4.109e-05    -4.340    -4.386    -0.046     (0)  
   Zn+2            4.029e-06   2.644e-06    -5.395    -5.578    -0.183     (0)  
   ZnCl+           6.644e-08   5.976e-08    -7.178    -7.224    -0.046     (0)  
   ZnCl2           8.525e-10   8.525e-10    -9.069    -9.069     0.000     (0)  
   ZnOH+           1.195e-11   1.059e-11   -10.923   -10.975    -0.052     (0)  
   ZnCl3-          6.775e-12   6.094e-12   -11.169   -11.215    -0.046     (0)  
   ZnOHCl          3.135e-12   3.135e-12   -11.504   -11.504     0.000     (0)  
   ZnOH(Edta)-3    1.187e-12   4.599e-13   -11.926   -12.337    -0.412     (0)  
   ZnCl4-2         4.139e-14   2.743e-14   -13.383   -13.562    -0.179     (0)  
   Zn(OH)2         6.728e-17   6.728e-17   -16.172   -16.172     0.000     (0)  
   Zn(OH)3-        1.524e-23   1.351e-23   -22.817   -22.869    -0.052     (0)  
   Zn(OH)4-2       3.487e-32   2.156e-32   -31.458   -31.666    -0.209     (0)  

------------------------------Saturation indices-------------------------------

  Phase               SI** log IAP   log K(298 K,   1 atm)

  Halite           -5.69     -4.09    1.60  NaCl
  O2(g)           -52.69     30.40   83.09  O2
  Zincite          -9.71      1.62   11.33  ZnO
  Zn(OH)2         -10.58      1.62   12.20  Zn(OH)2
  Zn(OH)2(am)     -10.85      1.62   12.47  Zn(OH)2
  Zn(OH)2(beta)   -10.13      1.62   11.75  Zn(OH)2
  Zn(OH)2(epsilon)  -9.91      1.62   11.53  Zn(OH)2
  Zn(OH)2(gamma)  -10.11      1.62   11.73  Zn(OH)2
  Zn2(OH)3Cl      -17.59     -2.40   15.19  Zn2(OH)3Cl
  Zn5(OH)8Cl2     -41.68     -3.18   38.50  Zn5(OH)8Cl2
  ZnCl2           -16.72     -9.67    7.05  ZnCl2
  Znmetal         -39.37    -13.58   25.79  Zn
  ZnO(active)      -9.57      1.62   11.19  ZnO

**For a gas, SI = log10(fugacity). Fugacity = pressure * phi / 1 atm.
  For ideal gases, phi = 1.

------------------
End of simulation.
------------------

------------------------------------
Reading input data for simulation 7.
------------------------------------

	SOLUTION 5
	pH		3.8
	Cl		0.01		mol/kgw
	Na		0.01		mol/kgw
	Zn	0.200 	mmol/kgw
	Edta  0.200 	mmol/kgw
	END
-------------------------------------------
Beginning of initial solution calculations.
-------------------------------------------

Initial solution 5.	

-----------------------------Solution composition------------------------------

	Elements           Molality       Moles

	Cl                1.000e-02   1.000e-02
	Edta              2.000e-04   2.000e-04
	Na                1.000e-02   1.000e-02
	Zn                2.000e-04   2.000e-04

----------------------------Description of solution----------------------------

                                       pH  =   3.800    
                                       pe  =   4.000    
                        Activity of water  =   1.000
                 Ionic strength (mol/kgw)  =   1.045e-02
                       Mass of water (kg)  =   1.000e+00
                 Total alkalinity (eq/kg)  =   1.866e-04
                         Temperature (°C)  =  25.00
                  Electrical balance (eq)  =  -1.866e-04
 Percent error, 100*(Cat-|An|)/(Cat+|An|)  =  -0.91
                               Iterations  =   9
                                  Total H  = 1.110139e+02
                                  Total O  = 5.550683e+01

----------------------------Distribution of species----------------------------

                                               Log       Log       Log    mole V
   Species          Molality    Activity  Molality  Activity     Gamma   cm³/mol

   H+              1.761e-04   1.585e-04    -3.754    -3.800    -0.046      0.00
   OH-             7.071e-11   6.351e-11   -10.151   -10.197    -0.047     (0)  
   H2O             5.551e+01   9.997e-01     1.744    -0.000     0.000     18.07
Cl            1.000e-02
   Cl-             1.000e-02   9.001e-03    -2.000    -2.046    -0.046     (0)  
   ZnCl+           4.245e-08   3.819e-08    -7.372    -7.418    -0.046     (0)  
   ZnCl2           5.448e-10   5.448e-10    -9.264    -9.264     0.000     (0)  
   ZnCl3-          4.330e-12   3.895e-12   -11.364   -11.409    -0.046     (0)  
   ZnOHCl          3.175e-12   3.175e-12   -11.498   -11.498     0.000     (0)  
   ZnCl4-2         2.645e-14   1.753e-14   -13.578   -13.756    -0.179     (0)  
Edta          2.000e-04
   Zn(Edta)-2      1.656e-04   1.087e-04    -3.781    -3.964    -0.183     (0)  
   ZnH(Edta)-      3.177e-05   2.860e-05    -4.498    -4.544    -0.046     (0)  
   H2(Edta)-2      2.266e-06   1.402e-06    -5.645    -5.853    -0.209     (0)  
   H3(Edta)-       3.295e-07   2.922e-07    -6.482    -6.534    -0.052     (0)  
   H(Edta)-3       1.389e-08   4.717e-09    -7.857    -8.326    -0.469     (0)  
   H4(Edta)        6.694e-09   6.694e-09    -8.174    -8.174     0.000     (0)  
   H5(Edta)+       3.783e-11   3.355e-11   -10.422   -10.474    -0.052     (0)  
   ZnOH(Edta)-3    2.072e-12   8.038e-13   -11.684   -12.095    -0.411     (0)  
   Na(Edta)-3      4.458e-15   1.514e-15   -14.351   -14.820    -0.469     (0)  
   Edta-4          1.806e-15   3.355e-16   -14.743   -15.474    -0.731     (0)  
H(0)          3.548e-19
   H2              1.774e-19   1.778e-19   -18.751   -18.750     0.001     (0)  
Na            1.000e-02
   Na+             1.000e-02   9.001e-03    -2.000    -2.046    -0.046     (0)  
   Na(Edta)-3      4.458e-15   1.514e-15   -14.351   -14.820    -0.469     (0)  
O(0)          0.000e+00
   O2              0.000e+00   0.000e+00   -54.796   -54.795     0.001     (0)  
Zn            2.000e-04
   Zn(Edta)-2      1.656e-04   1.087e-04    -3.781    -3.964    -0.183     (0)  
   ZnH(Edta)-      3.177e-05   2.860e-05    -4.498    -4.544    -0.046     (0)  
   Zn+2            2.573e-06   1.689e-06    -5.590    -5.772    -0.183     (0)  
   ZnCl+           4.245e-08   3.819e-08    -7.372    -7.418    -0.046     (0)  
   ZnCl2           5.448e-10   5.448e-10    -9.264    -9.264     0.000     (0)  
   ZnOH+           1.209e-11   1.073e-11   -10.917   -10.970    -0.052     (0)  
   ZnCl3-          4.330e-12   3.895e-12   -11.364   -11.409    -0.046     (0)  
   ZnOHCl          3.175e-12   3.175e-12   -11.498   -11.498     0.000     (0)  
   ZnOH(Edta)-3    2.072e-12   8.038e-13   -11.684   -12.095    -0.411     (0)  
   ZnCl4-2         2.645e-14   1.753e-14   -13.578   -13.756    -0.179     (0)  
   Zn(OH)2         1.080e-16   1.080e-16   -15.967   -15.967     0.000     (0)  
   Zn(OH)3-        3.875e-23   3.437e-23   -22.412   -22.464    -0.052     (0)  
   Zn(OH)4-2       1.405e-31   8.690e-32   -30.852   -31.061    -0.209     (0)  

------------------------------Saturation indices-------------------------------

  Phase               SI** log IAP   log K(298 K,   1 atm)

  Halite           -5.69     -4.09    1.60  NaCl
  O2(g)           -51.89     31.20   83.09  O2
  Zincite          -9.51      1.83   11.33  ZnO
  Zn(OH)2         -10.37      1.83   12.20  Zn(OH)2
  Zn(OH)2(am)     -10.65      1.83   12.47  Zn(OH)2
  Zn(OH)2(beta)    -9.93      1.83   11.75  Zn(OH)2
  Zn(OH)2(epsilon)  -9.71      1.83   11.53  Zn(OH)2
  Zn(OH)2(gamma)   -9.91      1.83   11.73  Zn(OH)2
  Zn2(OH)3Cl      -17.38     -2.19   15.19  Zn2(OH)3Cl
  Zn5(OH)8Cl2     -41.05     -2.55   38.50  Zn5(OH)8Cl2
  ZnCl2           -16.91     -9.86    7.05  ZnCl2
  Znmetal         -39.56    -13.77   25.79  Zn
  ZnO(active)      -9.36      1.83   11.19  ZnO

**For a gas, SI = log10(fugacity). Fugacity = pressure * phi / 1 atm.
  For ideal gases, phi = 1.

------------------
End of simulation.
------------------

------------------------------------
Reading input data for simulation 8.
------------------------------------

	SOLUTION 6
	pH		4.0
	Cl		0.01		mol/kgw
	Na		0.01		mol/kgw
	Zn	0.200 	mmol/kgw
	Edta  0.200 	mmol/kgw
	END
-------------------------------------------
Beginning of initial solution calculations.
-------------------------------------------

Initial solution 6.	

-----------------------------Solution composition------------------------------

	Elements           Molality       Moles

	Cl                1.000e-02   1.000e-02
	Edta              2.000e-04   2.000e-04
	Na                1.000e-02   1.000e-02
	Zn                2.000e-04   2.000e-04

----------------------------Description of solution----------------------------

                                       pH  =   4.000    
                                       pe  =   4.000    
                        Activity of water  =   1.000
                 Ionic strength (mol/kgw)  =   1.043e-02
                       Mass of water (kg)  =   1.000e+00
                 Total alkalinity (eq/kg)  =   2.640e-04
                         Temperature (°C)  =  25.00
                  Electrical balance (eq)  =  -2.640e-04
 Percent error, 100*(Cat-|An|)/(Cat+|An|)  =  -1.29
                               Iterations  =   9
                                  Total H  = 1.110138e+02
                                  Total O  = 5.550683e+01

----------------------------Distribution of species----------------------------

                                               Log       Log       Log    mole V
   Species          Molality    Activity  Molality  Activity     Gamma   cm³/mol

   H+              1.111e-04   1.000e-04    -3.954    -4.000    -0.046      0.00
   OH-             1.121e-10   1.007e-10    -9.951    -9.997    -0.047     (0)  
   H2O             5.551e+01   9.997e-01     1.744    -0.000     0.000     18.07
Cl            1.000e-02
   Cl-             1.000e-02   9.002e-03    -2.000    -2.046    -0.046     (0)  
   ZnCl+           2.706e-08   2.434e-08    -7.568    -7.614    -0.046     (0)  
   ZnCl2           3.473e-10   3.473e-10    -9.459    -9.459     0.000     (0)  
   ZnOHCl          3.208e-12   3.208e-12   -11.494   -11.494     0.000     (0)  
   ZnCl3-          2.760e-12   2.483e-12   -11.559   -11.605    -0.046     (0)  
   ZnCl4-2         1.686e-14   1.118e-14   -13.773   -13.952    -0.178     (0)  
Edta          2.000e-04
   Zn(Edta)-2      1.769e-04   1.162e-04    -3.752    -3.935    -0.183     (0)  
   ZnH(Edta)-      2.142e-05   1.928e-05    -4.669    -4.715    -0.046     (0)  
   H2(Edta)-2      1.512e-06   9.356e-07    -5.821    -6.029    -0.208     (0)  
   H3(Edta)-       1.387e-07   1.231e-07    -6.858    -6.910    -0.052     (0)  
   H(Edta)-3       1.468e-08   4.990e-09    -7.833    -8.302    -0.469     (0)  
   H4(Edta)        1.779e-09   1.779e-09    -8.750    -8.750     0.000     (0)  
   H5(Edta)+       6.341e-12   5.625e-12   -11.198   -11.250    -0.052     (0)  
   ZnOH(Edta)-3    3.507e-12   1.361e-12   -11.455   -11.866    -0.411     (0)  
   Na(Edta)-3      7.467e-15   2.538e-15   -14.127   -14.596    -0.469     (0)  
   Edta-4          3.024e-15   5.625e-16   -14.519   -15.250    -0.731     (0)  
H(0)          1.412e-19
   H2              7.062e-20   7.079e-20   -19.151   -19.150     0.001     (0)  
Na            1.000e-02
   Na+             1.000e-02   9.002e-03    -2.000    -2.046    -0.046     (0)  
   Na(Edta)-3      7.467e-15   2.538e-15   -14.127   -14.596    -0.469     (0)  
O(0)          0.000e+00
   O2              0.000e+00   0.000e+00   -53.996   -53.995     0.001     (0)  
Zn            2.000e-04
   Zn(Edta)-2      1.769e-04   1.162e-04    -3.752    -3.935    -0.183     (0)  
   ZnH(Edta)-      2.142e-05   1.928e-05    -4.669    -4.715    -0.046     (0)  
   Zn+2            1.639e-06   1.077e-06    -5.785    -5.968    -0.183     (0)  
   ZnCl+           2.706e-08   2.434e-08    -7.568    -7.614    -0.046     (0)  
   ZnCl2           3.473e-10   3.473e-10    -9.459    -9.459     0.000     (0)  
   ZnOH+           1.222e-11   1.084e-11   -10.913   -10.965    -0.052     (0)  
   ZnOH(Edta)-3    3.507e-12   1.361e-12   -11.455   -11.866    -0.411     (0)  
   ZnOHCl          3.208e-12   3.208e-12   -11.494   -11.494     0.000     (0)  
   ZnCl3-          2.760e-12   2.483e-12   -11.559   -11.605    -0.046     (0)  
   ZnCl4-2         1.686e-14   1.118e-14   -13.773   -13.952    -0.178     (0)  
   Zn(OH)2         1.729e-16   1.729e-16   -15.762   -15.762     0.000     (0)  
   Zn(OH)3-        9.832e-23   8.721e-23   -22.007   -22.059    -0.052     (0)  
   Zn(OH)4-2       5.646e-31   3.495e-31   -30.248   -30.457    -0.208     (0)  

------------------------------Saturation indices-------------------------------

  Phase               SI** log IAP   log K(298 K,   1 atm)

  Halite           -5.69     -4.09    1.60  NaCl
  O2(g)           -51.09     32.00   83.09  O2
  Zincite          -9.30      2.03   11.33  ZnO
  Zn(OH)2         -10.17      2.03   12.20  Zn(OH)2
  Zn(OH)2(am)     -10.44      2.03   12.47  Zn(OH)2
  Zn(OH)2(beta)    -9.72      2.03   11.75  Zn(OH)2
  Zn(OH)2(epsilon)  -9.50      2.03   11.53  Zn(OH)2
  Zn(OH)2(gamma)   -9.70      2.03   11.73  Zn(OH)2
  Zn2(OH)3Cl      -17.17     -1.98   15.19  Zn2(OH)3Cl
  Zn5(OH)8Cl2     -40.43     -1.93   38.50  Zn5(OH)8Cl2
  ZnCl2           -17.11    -10.06    7.05  ZnCl2
  Znmetal         -39.76    -13.97   25.79  Zn
  ZnO(active)      -9.16      2.03   11.19  ZnO

**For a gas, SI = log10(fugacity). Fugacity = pressure * phi / 1 atm.
  For ideal gases, phi = 1.

------------------
End of simulation.
------------------

------------------------------------
Reading input data for simulation 9.
------------------------------------

	SOLUTION 7
	pH		4.2
	Cl		0.01		mol/kgw
	Na		0.01		mol/kgw
	Zn	0.200 	mmol/kgw
	Edta  0.200 	mmol/kgw
	END
-------------------------------------------
Beginning of initial solution calculations.
-------------------------------------------

Initial solution 7.	

-----------------------------Solution composition------------------------------

	Elements           Molality       Moles

	Cl                1.000e-02   1.000e-02
	Edta              2.000e-04   2.000e-04
	Na                1.000e-02   1.000e-02
	Zn                2.000e-04   2.000e-04

----------------------------Description of solution----------------------------

                                       pH  =   4.200    
                                       pe  =   4.000    
                        Activity of water  =   1.000
                 Ionic strength (mol/kgw)  =   1.042e-02
                       Mass of water (kg)  =   1.000e+00
                 Total alkalinity (eq/kg)  =   3.136e-04
                         Temperature (°C)  =  25.00
                  Electrical balance (eq)  =  -3.136e-04
 Percent error, 100*(Cat-|An|)/(Cat+|An|)  =  -1.53
                               Iterations  =   9
                                  Total H  = 1.110138e+02
                                  Total O  = 5.550683e+01

----------------------------Distribution of species----------------------------

                                               Log       Log       Log    mole V
   Species          Molality    Activity  Molality  Activity     Gamma   cm³/mol

   H+              7.009e-05   6.310e-05    -4.154    -4.200    -0.046      0.00
   OH-             1.776e-10   1.595e-10    -9.751    -9.797    -0.047     (0)  
   H2O             5.551e+01   9.997e-01     1.744    -0.000     0.000     18.07
Cl            1.000e-02
   Cl-             1.000e-02   9.002e-03    -2.000    -2.046    -0.046     (0)  
   ZnCl+           1.722e-08   1.549e-08    -7.764    -7.810    -0.046     (0)  
   ZnCl2           2.211e-10   2.211e-10    -9.655    -9.655     0.000     (0)  
   ZnOHCl          3.236e-12   3.236e-12   -11.490   -11.490     0.000     (0)  
   ZnCl3-          1.757e-12   1.581e-12   -11.755   -11.801    -0.046     (0)  
   ZnCl4-2         1.073e-14   7.116e-15   -13.969   -14.148    -0.178     (0)  
Edta          2.000e-04
   Zn(Edta)-2      1.848e-04   1.214e-04    -3.733    -3.916    -0.183     (0)  
   ZnH(Edta)-      1.412e-05   1.271e-05    -4.850    -4.896    -0.046     (0)  
   H2(Edta)-2      9.877e-07   6.115e-07    -6.005    -6.214    -0.208     (0)  
   H3(Edta)-       5.721e-08   5.075e-08    -7.243    -7.295    -0.052     (0)  
   H(Edta)-3       1.520e-08   5.169e-09    -7.818    -8.287    -0.468     (0)  
   H4(Edta)        4.628e-10   4.628e-10    -9.335    -9.335     0.000     (0)  
   ZnOH(Edta)-3    5.805e-12   2.254e-12   -11.236   -11.647    -0.411     (0)  
   H5(Edta)+       1.041e-12   9.235e-13   -11.983   -12.035    -0.052     (0)  
   Na(Edta)-3      1.225e-14   4.167e-15   -13.912   -14.380    -0.468     (0)  
   Edta-4          4.962e-15   9.235e-16   -14.304   -15.035    -0.730     (0)  
H(0)          5.623e-20
   H2              2.812e-20   2.818e-20   -19.551   -19.550     0.001     (0)  
Na            1.000e-02
   Na+             1.000e-02   9.002e-03    -2.000    -2.046    -0.046     (0)  
   Na(Edta)-3      1.225e-14   4.167e-15   -13.912   -14.380    -0.468     (0)  
O(0)          0.000e+00
   O2              0.000e+00   0.000e+00   -53.196   -53.195     0.001     (0)  
Zn            2.000e-04
   Zn(Edta)-2      1.848e-04   1.214e-04    -3.733    -3.916    -0.183     (0)  
   ZnH(Edta)-      1.412e-05   1.271e-05    -4.850    -4.896    -0.046     (0)  
   Zn+2            1.043e-06   6.851e-07    -5.982    -6.164    -0.183     (0)  
   ZnCl+           1.722e-08   1.549e-08    -7.764    -7.810    -0.046     (0)  
   ZnCl2           2.211e-10   2.211e-10    -9.655    -9.655     0.000     (0)  
   ZnOH+           1.232e-11   1.093e-11   -10.909   -10.961    -0.052     (0)  
   ZnOH(Edta)-3    5.805e-12   2.254e-12   -11.236   -11.647    -0.411     (0)  
   ZnOHCl          3.236e-12   3.236e-12   -11.490   -11.490     0.000     (0)  
   ZnCl3-          1.757e-12   1.581e-12   -11.755   -11.801    -0.046     (0)  
   ZnCl4-2         1.073e-14   7.116e-15   -13.969   -14.148    -0.178     (0)  
   Zn(OH)2         2.764e-16   2.764e-16   -15.559   -15.559     0.000     (0)  
   Zn(OH)3-        2.491e-22   2.210e-22   -21.604   -21.656    -0.052     (0)  
   Zn(OH)4-2       2.267e-30   1.403e-30   -29.645   -29.853    -0.208     (0)  

------------------------------Saturation indices-------------------------------

  Phase               SI** log IAP   log K(298 K,   1 atm)

  Halite           -5.69     -4.09    1.60  NaCl
  O2(g)           -50.29     32.80   83.09  O2
  Zincite          -9.10      2.24   11.33  ZnO
  Zn(OH)2          -9.96      2.24   12.20  Zn(OH)2
  Zn(OH)2(am)     -10.24      2.24   12.47  Zn(OH)2
  Zn(OH)2(beta)    -9.52      2.24   11.75  Zn(OH)2
  Zn(OH)2(epsilon)  -9.30      2.24   11.53  Zn(OH)2
  Zn(OH)2(gamma)   -9.50      2.24   11.73  Zn(OH)2
  Zn2(OH)3Cl      -16.97     -1.77   15.19  Zn2(OH)3Cl
  Zn5(OH)8Cl2     -39.81     -1.31   38.50  Zn5(OH)8Cl2
  ZnCl2           -17.31    -10.26    7.05  ZnCl2
  Znmetal         -39.95    -14.16   25.79  Zn
  ZnO(active)      -8.95      2.24   11.19  ZnO

**For a gas, SI = log10(fugacity). Fugacity = pressure * phi / 1 atm.
  For ideal gases, phi = 1.

------------------
End of simulation.
------------------

-------------------------------------
Reading input data for simulation 10.
-------------------------------------

	SOLUTION 8
	pH		4.4
	Cl		0.01		mol/kgw
	Na		0.01		mol/kgw
	Zn	0.200 	mmol/kgw
	Edta  0.200 	mmol/kgw
	END
-------------------------------------------
Beginning of initial solution calculations.
-------------------------------------------

Initial solution 8.	

-----------------------------Solution composition------------------------------

	Elements           Molality       Moles

	Cl                1.000e-02   1.000e-02
	Edta              2.000e-04   2.000e-04
	Na                1.000e-02   1.000e-02
	Zn                2.000e-04   2.000e-04

----------------------------Description of solution----------------------------

                                       pH  =   4.400    
                                       pe  =   4.000    
                        Activity of water  =   1.000
                 Ionic strength (mol/kgw)  =   1.041e-02
                       Mass of water (kg)  =   1.000e+00
                 Total alkalinity (eq/kg)  =   3.453e-04
                         Temperature (°C)  =  25.00
                  Electrical balance (eq)  =  -3.453e-04
 Percent error, 100*(Cat-|An|)/(Cat+|An|)  =  -1.69
                               Iterations  =   9
                                  Total H  = 1.110137e+02
                                  Total O  = 5.550683e+01

----------------------------Distribution of species----------------------------

                                               Log       Log       Log    mole V
   Species          Molality    Activity  Molality  Activity     Gamma   cm³/mol

   H+              4.422e-05   3.981e-05    -4.354    -4.400    -0.046      0.00
   OH-             2.815e-10   2.528e-10    -9.551    -9.597    -0.047     (0)  
   H2O             5.551e+01   9.997e-01     1.744    -0.000     0.000     18.07
Cl            1.000e-02
   Cl-             1.000e-02   9.003e-03    -2.000    -2.046    -0.046     (0)  
   ZnCl+           1.096e-08   9.858e-09    -7.960    -8.006    -0.046     (0)  
   ZnCl2           1.407e-10   1.407e-10    -9.852    -9.852     0.000     (0)  
   ZnOHCl          3.263e-12   3.263e-12   -11.486   -11.486     0.000     (0)  
   ZnCl3-          1.118e-12   1.006e-12   -11.952   -11.997    -0.046     (0)  
   ZnCl4-2         6.826e-15   4.528e-15   -14.166   -14.344    -0.178     (0)  
Edta          2.000e-04
   Zn(Edta)-2      1.902e-04   1.249e-04    -3.721    -3.903    -0.183     (0)  
   ZnH(Edta)-      9.167e-06   8.253e-06    -5.038    -5.083    -0.046     (0)  
   H2(Edta)-2      6.358e-07   3.937e-07    -6.197    -6.405    -0.208     (0)  
   H3(Edta)-       2.324e-08   2.062e-08    -7.634    -7.686    -0.052     (0)  
   H(Edta)-3       1.551e-08   5.275e-09    -7.809    -8.278    -0.468     (0)  
   H4(Edta)        1.186e-10   1.186e-10    -9.926    -9.926     0.000     (0)  
   ZnOH(Edta)-3    9.464e-12   3.677e-12   -11.024   -11.435    -0.411     (0)  
   H5(Edta)+       1.684e-13   1.494e-13   -12.774   -12.826    -0.052     (0)  
   Na(Edta)-3      1.981e-14   6.739e-15   -13.703   -14.171    -0.468     (0)  
   Edta-4          8.021e-15   1.494e-15   -14.096   -14.826    -0.730     (0)  
H(0)          2.239e-20
   H2              1.119e-20   1.122e-20   -19.951   -19.950     0.001     (0)  
Na            1.000e-02
   Na+             1.000e-02   9.003e-03    -2.000    -2.046    -0.046     (0)  
   Na(Edta)-3      1.981e-14   6.739e-15   -13.703   -14.171    -0.468     (0)  
O(0)          0.000e+00
   O2              0.000e+00   0.000e+00   -52.396   -52.395     0.001     (0)  
Zn            2.000e-04
   Zn(Edta)-2      1.902e-04   1.249e-04    -3.721    -3.903    -0.183     (0)  
   ZnH(Edta)-      9.167e-06   8.253e-06    -5.038    -5.083    -0.046     (0)  
   Zn+2            6.636e-07   4.359e-07    -6.178    -6.361    -0.183     (0)  
   ZnCl+           1.096e-08   9.858e-09    -7.960    -8.006    -0.046     (0)  
   ZnCl2           1.407e-10   1.407e-10    -9.852    -9.852     0.000     (0)  
   ZnOH+           1.242e-11   1.102e-11   -10.906   -10.958    -0.052     (0)  
   ZnOH(Edta)-3    9.464e-12   3.677e-12   -11.024   -11.435    -0.411     (0)  
   ZnOHCl          3.263e-12   3.263e-12   -11.486   -11.486     0.000     (0)  
   ZnCl3-          1.118e-12   1.006e-12   -11.952   -11.997    -0.046     (0)  
   ZnCl4-2         6.826e-15   4.528e-15   -14.166   -14.344    -0.178     (0)  
   Zn(OH)2         4.417e-16   4.417e-16   -15.355   -15.355     0.000     (0)  
   Zn(OH)3-        6.309e-22   5.597e-22   -21.200   -21.252    -0.052     (0)  
   Zn(OH)4-2       9.098e-30   5.634e-30   -29.041   -29.249    -0.208     (0)  

------------------------------Saturation indices-------------------------------

  Phase               SI** log IAP   log K(298 K,   1 atm)

  Halite           -5.69     -4.09    1.60  NaCl
  O2(g)           -49.49     33.60   83.09  O2
  Zincite          -8.89      2.44   11.33  ZnO
  Zn(OH)2          -9.76      2.44   12.20  Zn(OH)2
  Zn(OH)2(am)     -10.03      2.44   12.47  Zn(OH)2
  Zn(OH)2(beta)    -9.31      2.44   11.75  Zn(OH)2
  Zn(OH)2(epsilon)  -9.09      2.44   11.53  Zn(OH)2
  Zn(OH)2(gamma)   -9.29      2.44   11.73  Zn(OH)2
  Zn2(OH)3Cl      -16.76     -1.57   15.19  Zn2(OH)3Cl
  Zn5(OH)8Cl2     -39.20     -0.70   38.50  Zn5(OH)8Cl2
  ZnCl2           -17.50    -10.45    7.05  ZnCl2
  Znmetal         -40.15    -14.36   25.79  Zn
  ZnO(active)      -8.75      2.44   11.19  ZnO

**For a gas, SI = log10(fugacity). Fugacity = pressure * phi / 1 atm.
  For ideal gases, phi = 1.

------------------
End of simulation.
------------------

-------------------------------------
Reading input data for simulation 11.
-------------------------------------

	SOLUTION 9
	pH		4.6
	Cl		0.01		mol/kgw
	Na		0.01		mol/kgw
	Zn	0.200 	mmol/kgw
	Edta  0.200 	mmol/kgw
	END
-------------------------------------------
Beginning of initial solution calculations.
-------------------------------------------

Initial solution 9.	

-----------------------------Solution composition------------------------------

	Elements           Molality       Moles

	Cl                1.000e-02   1.000e-02
	Edta              2.000e-04   2.000e-04
	Na                1.000e-02   1.000e-02
	Zn                2.000e-04   2.000e-04

----------------------------Description of solution----------------------------

                                       pH  =   4.600    
                                       pe  =   4.000    
                        Activity of water  =   1.000
                 Ionic strength (mol/kgw)  =   1.041e-02
                       Mass of water (kg)  =   1.000e+00
                 Total alkalinity (eq/kg)  =   3.654e-04
                         Temperature (°C)  =  25.00
                  Electrical balance (eq)  =  -3.654e-04
 Percent error, 100*(Cat-|An|)/(Cat+|An|)  =  -1.79
                               Iterations  =  10
                                  Total H  = 1.110137e+02
                                  Total O  = 5.550683e+01

----------------------------Distribution of species----------------------------

                                               Log       Log       Log    mole V
   Species          Molality    Activity  Molality  Activity     Gamma   cm³/mol

   H+              2.790e-05   2.512e-05    -4.554    -4.600    -0.046      0.00
   OH-             4.461e-10   4.007e-10    -9.351    -9.397    -0.047     (0)  
   H2O             5.551e+01   9.997e-01     1.744    -0.000     0.000     18.07
Cl            1.000e-02
   Cl-             1.000e-02   9.003e-03    -2.000    -2.046    -0.046     (0)  
   ZnCl+           6.979e-09   6.279e-09    -8.156    -8.202    -0.046     (0)  
   ZnCl2           8.960e-11   8.960e-11   -10.048   -10.048     0.000     (0)  
   ZnOHCl          3.294e-12   3.294e-12   -11.482   -11.482     0.000     (0)  
   ZnCl3-          7.121e-13   6.407e-13   -12.147   -12.193    -0.046     (0)  
   ZnCl4-2         4.348e-15   2.884e-15   -14.362   -14.540    -0.178     (0)  
Edta          2.000e-04
   Zn(Edta)-2      1.937e-04   1.272e-04    -3.713    -3.895    -0.182     (0)  
   ZnH(Edta)-      5.891e-06   5.304e-06    -5.230    -5.275    -0.046     (0)  
   H2(Edta)-2      4.048e-07   2.507e-07    -6.393    -6.601    -0.208     (0)  
   H(Edta)-3       1.564e-08   5.322e-09    -7.806    -8.274    -0.468     (0)  
   H3(Edta)-       9.335e-09   8.281e-09    -8.030    -8.082    -0.052     (0)  
   H4(Edta)        3.007e-11   3.007e-11   -10.522   -10.522     0.000     (0)  
   ZnOH(Edta)-3    1.528e-11   5.935e-12   -10.816   -11.227    -0.411     (0)  
   Na(Edta)-3      3.167e-14   1.078e-14   -13.499   -13.968    -0.468     (0)  
   H5(Edta)+       2.692e-14   2.388e-14   -13.570   -13.622    -0.052     (0)  
   Edta-4          1.282e-14   2.388e-15   -13.892   -14.622    -0.730     (0)  
H(0)          8.912e-21
   H2              4.456e-21   4.467e-21   -20.351   -20.350     0.001     (0)  
Na            1.000e-02
   Na+             1.000e-02   9.003e-03    -2.000    -2.046    -0.046     (0)  
   Na(Edta)-3      3.167e-14   1.078e-14   -13.499   -13.968    -0.468     (0)  
O(0)          0.000e+00
   O2              0.000e+00   0.000e+00   -51.596   -51.595     0.001     (0)  
Zn            2.000e-04
   Zn(Edta)-2      1.937e-04   1.272e-04    -3.713    -3.895    -0.182     (0)  
   ZnH(Edta)-      5.891e-06   5.304e-06    -5.230    -5.275    -0.046     (0)  
   Zn+2            4.227e-07   2.777e-07    -6.374    -6.556    -0.182     (0)  
   ZnCl+           6.979e-09   6.279e-09    -8.156    -8.202    -0.046     (0)  
   ZnCl2           8.960e-11   8.960e-11   -10.048   -10.048     0.000     (0)  
   ZnOH(Edta)-3    1.528e-11   5.935e-12   -10.816   -11.227    -0.411     (0)  
   ZnOH+           1.254e-11   1.113e-11   -10.902   -10.954    -0.052     (0)  
   ZnOHCl          3.294e-12   3.294e-12   -11.482   -11.482     0.000     (0)  
   ZnCl3-          7.121e-13   6.407e-13   -12.147   -12.193    -0.046     (0)  
   ZnCl4-2         4.348e-15   2.884e-15   -14.362   -14.540    -0.178     (0)  
   Zn(OH)2         7.067e-16   7.067e-16   -15.151   -15.151     0.000     (0)  
   Zn(OH)3-        1.600e-21   1.419e-21   -20.796   -20.848    -0.052     (0)  
   Zn(OH)4-2       3.656e-29   2.264e-29   -28.437   -28.645    -0.208     (0)  

------------------------------Saturation indices-------------------------------

  Phase               SI** log IAP   log K(298 K,   1 atm)

  Halite           -5.69     -4.09    1.60  NaCl
  O2(g)           -48.69     34.40   83.09  O2
  Zincite          -8.69      2.64   11.33  ZnO
  Zn(OH)2          -9.56      2.64   12.20  Zn(OH)2
  Zn(OH)2(am)      -9.83      2.64   12.47  Zn(OH)2
  Zn(OH)2(beta)    -9.11      2.64   11.75  Zn(OH)2
  Zn(OH)2(epsilon)  -8.89      2.64   11.53  Zn(OH)2
  Zn(OH)2(gamma)   -9.09      2.64   11.73  Zn(OH)2
  Zn2(OH)3Cl      -16.55     -1.36   15.19  Zn2(OH)3Cl
  Zn5(OH)8Cl2     -38.57     -0.07   38.50  Zn5(OH)8Cl2
  ZnCl2           -17.70    -10.65    7.05  ZnCl2
  Znmetal         -40.35    -14.56   25.79  Zn
  ZnO(active)      -8.55      2.64   11.19  ZnO

**For a gas, SI = log10(fugacity). Fugacity = pressure * phi / 1 atm.
  For ideal gases, phi = 1.

------------------
End of simulation.
------------------

-------------------------------------
Reading input data for simulation 12.
-------------------------------------

	SOLUTION 10
	pH		4.8
	Cl		0.01		mol/kgw
	Na		0.01		mol/kgw
	Zn	0.200 	mmol/kgw
	Edta  0.200 	mmol/kgw
	END
-------------------------------------------
Beginning of initial solution calculations.
-------------------------------------------

Initial solution 10.	

-----------------------------Solution composition------------------------------

	Elements           Molality       Moles

	Cl                1.000e-02   1.000e-02
	Edta              2.000e-04   2.000e-04
	Na                1.000e-02   1.000e-02
	Zn                2.000e-04   2.000e-04

----------------------------Description of solution----------------------------

                                       pH  =   4.800    
                                       pe  =   4.000    
                        Activity of water  =   1.000
                 Ionic strength (mol/kgw)  =   1.040e-02
                       Mass of water (kg)  =   1.000e+00
                 Total alkalinity (eq/kg)  =   3.781e-04
                         Temperature (°C)  =  25.00
                  Electrical balance (eq)  =  -3.781e-04
 Percent error, 100*(Cat-|An|)/(Cat+|An|)  =  -1.85
                               Iterations  =  10
                                  Total H  = 1.110137e+02
                                  Total O  = 5.550683e+01

----------------------------Distribution of species----------------------------

                                               Log       Log       Log    mole V
   Species          Molality    Activity  Molality  Activity     Gamma   cm³/mol

   H+              1.760e-05   1.585e-05    -4.754    -4.800    -0.046      0.00
   OH-             7.070e-10   6.351e-10    -9.151    -9.197    -0.047     (0)  
   H2O             5.551e+01   9.997e-01     1.744    -0.000     0.000     18.07
Cl            1.000e-02
   Cl-             1.000e-02   9.003e-03    -2.000    -2.046    -0.046     (0)  
   ZnCl+           4.458e-09   4.012e-09    -8.351    -8.397    -0.046     (0)  
   ZnCl2           5.724e-11   5.724e-11   -10.242   -10.242     0.000     (0)  
   ZnOHCl          3.336e-12   3.336e-12   -11.477   -11.477     0.000     (0)  
   ZnCl3-          4.549e-13   4.093e-13   -12.342   -12.388    -0.046     (0)  
   ZnCl4-2         2.778e-15   1.843e-15   -14.556   -14.735    -0.178     (0)  
Edta          2.000e-04
   Zn(Edta)-2      1.960e-04   1.287e-04    -3.708    -3.890    -0.182     (0)  
   ZnH(Edta)-      3.761e-06   3.386e-06    -5.425    -5.470    -0.046     (0)  
   H2(Edta)-2      2.552e-07   1.580e-07    -6.593    -6.801    -0.208     (0)  
   H(Edta)-3       1.563e-08   5.318e-09    -7.806    -8.274    -0.468     (0)  
   H3(Edta)-       3.714e-09   3.294e-09    -8.430    -8.482    -0.052     (0)  
   ZnOH(Edta)-3    2.450e-11   9.518e-12   -10.611   -11.021    -0.411     (0)  
   H4(Edta)        7.547e-12   7.547e-12   -11.122   -11.122     0.000     (0)  
   Na(Edta)-3      5.016e-14   1.707e-14   -13.300   -13.768    -0.468     (0)  
   Edta-4          2.031e-14   3.783e-15   -13.692   -14.422    -0.730     (0)  
   H5(Edta)+       4.264e-15   3.783e-15   -14.370   -14.422    -0.052     (0)  
H(0)          3.548e-21
   H2              1.774e-21   1.778e-21   -20.751   -20.750     0.001     (0)  
Na            1.000e-02
   Na+             1.000e-02   9.003e-03    -2.000    -2.046    -0.046     (0)  
   Na(Edta)-3      5.016e-14   1.707e-14   -13.300   -13.768    -0.468     (0)  
O(0)          0.000e+00
   O2              0.000e+00   0.000e+00   -50.796   -50.795     0.001     (0)  
Zn            2.000e-04
   Zn(Edta)-2      1.960e-04   1.287e-04    -3.708    -3.890    -0.182     (0)  
   ZnH(Edta)-      3.761e-06   3.386e-06    -5.425    -5.470    -0.046     (0)  
   Zn+2            2.700e-07   1.774e-07    -6.569    -6.751    -0.182     (0)  
   ZnCl+           4.458e-09   4.012e-09    -8.351    -8.397    -0.046     (0)  
   ZnCl2           5.724e-11   5.724e-11   -10.242   -10.242     0.000     (0)  
   ZnOH(Edta)-3    2.450e-11   9.518e-12   -10.611   -11.021    -0.411     (0)  
   ZnOH+           1.270e-11   1.127e-11   -10.896   -10.948    -0.052     (0)  
   ZnOHCl          3.336e-12   3.336e-12   -11.477   -11.477     0.000     (0)  
   ZnCl3-          4.549e-13   4.093e-13   -12.342   -12.388    -0.046     (0)  
   ZnCl4-2         2.778e-15   1.843e-15   -14.556   -14.735    -0.178     (0)  
   Zn(OH)2         1.134e-15   1.134e-15   -14.945   -14.945     0.000     (0)  
   Zn(OH)3-        4.069e-21   3.610e-21   -20.390   -20.443    -0.052     (0)  
   Zn(OH)4-2       1.474e-28   9.127e-29   -27.832   -28.040    -0.208     (0)  

------------------------------Saturation indices-------------------------------

  Phase               SI** log IAP   log K(298 K,   1 atm)

  Halite           -5.69     -4.09    1.60  NaCl
  O2(g)           -47.89     35.20   83.09  O2
  Zincite          -8.49      2.85   11.33  ZnO
  Zn(OH)2          -9.35      2.85   12.20  Zn(OH)2
  Zn(OH)2(am)      -9.63      2.85   12.47  Zn(OH)2
  Zn(OH)2(beta)    -8.91      2.85   11.75  Zn(OH)2
  Zn(OH)2(epsilon)  -8.69      2.85   11.53  Zn(OH)2
  Zn(OH)2(gamma)   -8.89      2.85   11.73  Zn(OH)2
  Zn2(OH)3Cl      -16.34     -1.15   15.19  Zn2(OH)3Cl
  Zn5(OH)8Cl2     -37.95      0.55   38.50  Zn5(OH)8Cl2
  ZnCl2           -17.89    -10.84    7.05  ZnCl2
  Znmetal         -40.54    -14.75   25.79  Zn
  ZnO(active)      -8.34      2.85   11.19  ZnO

**For a gas, SI = log10(fugacity). Fugacity = pressure * phi / 1 atm.
  For ideal gases, phi = 1.

------------------
End of simulation.
------------------

-------------------------------------
Reading input data for simulation 13.
-------------------------------------

	SOLUTION 11
	pH		5.0
	Cl		0.01		mol/kgw
	Na		0.01		mol/kgw
	Zn	0.200 	mmol/kgw
	Edta  0.200 	mmol/kgw
	END
-------------------------------------------
Beginning of initial solution calculations.
-------------------------------------------

Initial solution 11.	

-----------------------------Solution composition------------------------------

	Elements           Molality       Moles

	Cl                1.000e-02   1.000e-02
	Edta              2.000e-04   2.000e-04
	Na                1.000e-02   1.000e-02
	Zn                2.000e-04   2.000e-04

----------------------------Description of solution----------------------------

                                       pH  =   5.000    
                                       pe  =   4.000    
                        Activity of water  =   1.000
                 Ionic strength (mol/kgw)  =   1.040e-02
                       Mass of water (kg)  =   1.000e+00
                 Total alkalinity (eq/kg)  =   3.862e-04
                         Temperature (°C)  =  25.00
                  Electrical balance (eq)  =  -3.862e-04
 Percent error, 100*(Cat-|An|)/(Cat+|An|)  =  -1.89
                               Iterations  =  10
                                  Total H  = 1.110137e+02
                                  Total O  = 5.550683e+01

----------------------------Distribution of species----------------------------

                                               Log       Log       Log    mole V
   Species          Molality    Activity  Molality  Activity     Gamma   cm³/mol

   H+              1.111e-05   1.000e-05    -4.954    -5.000    -0.046      0.00
   OH-             1.120e-09   1.007e-09    -8.951    -8.997    -0.047     (0)  
   H2O             5.551e+01   9.997e-01     1.744    -0.000     0.000     18.07
Cl            1.000e-02
   Cl-             1.000e-02   9.003e-03    -2.000    -2.046    -0.046     (0)  
   ZnCl+           2.863e-09   2.576e-09    -8.543    -8.589    -0.046     (0)  
   ZnCl2           3.676e-11   3.676e-11   -10.435   -10.435     0.000     (0)  
   ZnOHCl          3.395e-12   3.395e-12   -11.469   -11.469     0.000     (0)  
   ZnCl3-          2.922e-13   2.629e-13   -12.534   -12.580    -0.046     (0)  
   ZnCl4-2         1.784e-15   1.183e-15   -14.749   -14.927    -0.178     (0)  
Edta          2.000e-04
   Zn(Edta)-2      1.974e-04   1.297e-04    -3.705    -3.887    -0.182     (0)  
   ZnH(Edta)-      2.391e-06   2.153e-06    -5.621    -5.667    -0.046     (0)  
   H2(Edta)-2      1.594e-07   9.871e-08    -6.798    -7.006    -0.208     (0)  
   H(Edta)-3       1.547e-08   5.265e-09    -7.810    -8.279    -0.468     (0)  
   H3(Edta)-       1.463e-09   1.298e-09    -8.835    -8.887    -0.052     (0)  
   ZnOH(Edta)-3    3.911e-11   1.520e-11   -10.408   -10.818    -0.411     (0)  
   H4(Edta)        1.877e-12   1.877e-12   -11.727   -11.727     0.000     (0)  
   Na(Edta)-3      7.869e-14   2.678e-14   -13.104   -13.572    -0.468     (0)  
   Edta-4          3.185e-14   5.934e-15   -13.497   -14.227    -0.730     (0)  
   H5(Edta)+       6.689e-16   5.934e-16   -15.175   -15.227    -0.052     (0)  
H(0)          1.413e-21
   H2              7.063e-22   7.079e-22   -21.151   -21.150     0.001     (0)  
Na            1.000e-02
   Na+             1.000e-02   9.003e-03    -2.000    -2.046    -0.046     (0)  
   Na(Edta)-3      7.869e-14   2.678e-14   -13.104   -13.572    -0.468     (0)  
O(0)          0.000e+00
   O2              0.000e+00   0.000e+00   -49.996   -49.995     0.001     (0)  
Zn            2.000e-04
   Zn(Edta)-2      1.974e-04   1.297e-04    -3.705    -3.887    -0.182     (0)  
   ZnH(Edta)-      2.391e-06   2.153e-06    -5.621    -5.667    -0.046     (0)  
   Zn+2            1.734e-07   1.139e-07    -6.761    -6.943    -0.182     (0)  
   ZnCl+           2.863e-09   2.576e-09    -8.543    -8.589    -0.046     (0)  
   ZnOH(Edta)-3    3.911e-11   1.520e-11   -10.408   -10.818    -0.411     (0)  
   ZnCl2           3.676e-11   3.676e-11   -10.435   -10.435     0.000     (0)  
   ZnOH+           1.293e-11   1.147e-11   -10.889   -10.941    -0.052     (0)  
   ZnOHCl          3.395e-12   3.395e-12   -11.469   -11.469     0.000     (0)  
   ZnCl3-          2.922e-13   2.629e-13   -12.534   -12.580    -0.046     (0)  
   Zn(OH)2         1.829e-15   1.829e-15   -14.738   -14.738     0.000     (0)  
   ZnCl4-2         1.784e-15   1.183e-15   -14.749   -14.927    -0.178     (0)  
   Zn(OH)3-        1.040e-20   9.229e-21   -19.983   -20.035    -0.052     (0)  
   Zn(OH)4-2       5.971e-28   3.698e-28   -27.224   -27.432    -0.208     (0)  

------------------------------Saturation indices-------------------------------

  Phase               SI** log IAP   log K(298 K,   1 atm)

  Halite           -5.69     -4.09    1.60  NaCl
  O2(g)           -47.09     36.00   83.09  O2
  Zincite          -8.28      3.06   11.33  ZnO
  Zn(OH)2          -9.14      3.06   12.20  Zn(OH)2
  Zn(OH)2(am)      -9.42      3.06   12.47  Zn(OH)2
  Zn(OH)2(beta)    -8.70      3.06   11.75  Zn(OH)2
  Zn(OH)2(epsilon)  -8.48      3.06   11.53  Zn(OH)2
  Zn(OH)2(gamma)   -8.68      3.06   11.73  Zn(OH)2
  Zn2(OH)3Cl      -16.12     -0.93   15.19  Zn2(OH)3Cl
  Zn5(OH)8Cl2     -37.31      1.19   38.50  Zn5(OH)8Cl2
  ZnCl2           -18.08    -11.03    7.05  ZnCl2
  Znmetal         -40.73    -14.94   25.79  Zn
  ZnO(active)      -8.13      3.06   11.19  ZnO

**For a gas, SI = log10(fugacity). Fugacity = pressure * phi / 1 atm.
  For ideal gases, phi = 1.

------------------
End of simulation.
------------------

-------------------------------------
Reading input data for simulation 14.
-------------------------------------

	SOLUTION 12
	pH		5.2
	Cl		0.01		mol/kgw
	Na		0.01		mol/kgw
	Zn	0.200 	mmol/kgw
	Edta  0.200 	mmol/kgw
	END
-------------------------------------------
Beginning of initial solution calculations.
-------------------------------------------

Initial solution 12.	

-----------------------------Solution composition------------------------------

	Elements           Molality       Moles

	Cl                1.000e-02   1.000e-02
	Edta              2.000e-04   2.000e-04
	Na                1.000e-02   1.000e-02
	Zn                2.000e-04   2.000e-04

----------------------------Description of solution----------------------------

                                       pH  =   5.200    
                                       pe  =   4.000    
                        Activity of water  =   1.000
                 Ionic strength (mol/kgw)  =   1.040e-02
                       Mass of water (kg)  =   1.000e+00
                 Total alkalinity (eq/kg)  =   3.913e-04
                         Temperature (°C)  =  25.00
                  Electrical balance (eq)  =  -3.913e-04
 Percent error, 100*(Cat-|An|)/(Cat+|An|)  =  -1.92
                               Iterations  =  10
                                  Total H  = 1.110137e+02
                                  Total O  = 5.550683e+01

----------------------------Distribution of species----------------------------

                                               Log       Log       Log    mole V
   Species          Molality    Activity  Molality  Activity     Gamma   cm³/mol

   H+              7.008e-06   6.310e-06    -5.154    -5.200    -0.046      0.00
   OH-             1.776e-09   1.595e-09    -8.751    -8.797    -0.047     (0)  
   H2O             5.551e+01   9.997e-01     1.744    -0.000     0.000     18.07
Cl            1.000e-02
   Cl-             1.000e-02   9.003e-03    -2.000    -2.046    -0.046     (0)  
   ZnCl+           1.854e-09   1.668e-09    -8.732    -8.778    -0.046     (0)  
   ZnCl2           2.380e-11   2.380e-11   -10.623   -10.623     0.000     (0)  
   ZnOHCl          3.484e-12   3.484e-12   -11.458   -11.458     0.000     (0)  
   ZnCl3-          1.892e-13   1.702e-13   -12.723   -12.769    -0.046     (0)  
   ZnCl4-2         1.155e-15   7.663e-16   -14.937   -15.116    -0.178     (0)  
Edta          2.000e-04
   Zn(Edta)-2      1.984e-04   1.303e-04    -3.703    -3.885    -0.182     (0)  
   ZnH(Edta)-      1.516e-06   1.365e-06    -5.819    -5.865    -0.046     (0)  
   H2(Edta)-2      9.846e-08   6.098e-08    -7.007    -7.215    -0.208     (0)  
   H(Edta)-3       1.515e-08   5.154e-09    -7.820    -8.288    -0.468     (0)  
   H3(Edta)-       5.704e-10   5.060e-10    -9.244    -9.296    -0.052     (0)  
   ZnOH(Edta)-3    6.228e-11   2.420e-11   -10.206   -10.616    -0.410     (0)  
   H4(Edta)        4.615e-13   4.615e-13   -12.336   -12.336     0.000     (0)  
   Na(Edta)-3      1.221e-13   4.155e-14   -12.913   -13.381    -0.468     (0)  
   Edta-4          4.943e-14   9.208e-15   -13.306   -14.036    -0.730     (0)  
   H5(Edta)+       1.038e-16   9.208e-17   -15.984   -16.036    -0.052     (0)  
H(0)          5.623e-22
   H2              2.812e-22   2.818e-22   -21.551   -21.550     0.001     (0)  
Na            1.000e-02
   Na+             1.000e-02   9.003e-03    -2.000    -2.046    -0.046     (0)  
   Na(Edta)-3      1.221e-13   4.155e-14   -12.913   -13.381    -0.468     (0)  
O(0)          0.000e+00
   O2              0.000e+00   0.000e+00   -49.196   -49.195     0.001     (0)  
Zn            2.000e-04
   Zn(Edta)-2      1.984e-04   1.303e-04    -3.703    -3.885    -0.182     (0)  
   ZnH(Edta)-      1.516e-06   1.365e-06    -5.819    -5.865    -0.046     (0)  
   Zn+2            1.123e-07   7.377e-08    -6.950    -7.132    -0.182     (0)  
   ZnCl+           1.854e-09   1.668e-09    -8.732    -8.778    -0.046     (0)  
   ZnOH(Edta)-3    6.228e-11   2.420e-11   -10.206   -10.616    -0.410     (0)  
   ZnCl2           2.380e-11   2.380e-11   -10.623   -10.623     0.000     (0)  
   ZnOH+           1.327e-11   1.177e-11   -10.877   -10.929    -0.052     (0)  
   ZnOHCl          3.484e-12   3.484e-12   -11.458   -11.458     0.000     (0)  
   ZnCl3-          1.892e-13   1.702e-13   -12.723   -12.769    -0.046     (0)  
   Zn(OH)2         2.975e-15   2.975e-15   -14.526   -14.526     0.000     (0)  
   ZnCl4-2         1.155e-15   7.663e-16   -14.937   -15.116    -0.178     (0)  
   Zn(OH)3-        2.682e-20   2.379e-20   -19.572   -19.624    -0.052     (0)  
   Zn(OH)4-2       2.440e-27   1.511e-27   -26.613   -26.821    -0.208     (0)  

------------------------------Saturation indices-------------------------------

  Phase               SI** log IAP   log K(298 K,   1 atm)

  Halite           -5.69     -4.09    1.60  NaCl
  O2(g)           -46.29     36.80   83.09  O2
  Zincite          -8.07      3.27   11.33  ZnO
  Zn(OH)2          -8.93      3.27   12.20  Zn(OH)2
  Zn(OH)2(am)      -9.21      3.27   12.47  Zn(OH)2
  Zn(OH)2(beta)    -8.49      3.27   11.75  Zn(OH)2
  Zn(OH)2(epsilon)  -8.27      3.27   11.53  Zn(OH)2
  Zn(OH)2(gamma)   -8.47      3.27   11.73  Zn(OH)2
  Zn2(OH)3Cl      -15.90     -0.71   15.19  Zn2(OH)3Cl
  Zn5(OH)8Cl2     -36.65      1.85   38.50  Zn5(OH)8Cl2
  ZnCl2           -18.27    -11.22    7.05  ZnCl2
  Znmetal         -40.92    -15.13   25.79  Zn
  ZnO(active)      -7.92      3.27   11.19  ZnO

**For a gas, SI = log10(fugacity). Fugacity = pressure * phi / 1 atm.
  For ideal gases, phi = 1.

------------------
End of simulation.
------------------

-------------------------------------
Reading input data for simulation 15.
-------------------------------------

	SOLUTION 13
	pH		5.4
	Cl		0.01		mol/kgw
	Na		0.01		mol/kgw
	Zn	0.200 	mmol/kgw
	Edta  0.200 	mmol/kgw
	END
-------------------------------------------
Beginning of initial solution calculations.
-------------------------------------------

Initial solution 13.	

-----------------------------Solution composition------------------------------

	Elements           Molality       Moles

	Cl                1.000e-02   1.000e-02
	Edta              2.000e-04   2.000e-04
	Na                1.000e-02   1.000e-02
	Zn                2.000e-04   2.000e-04

----------------------------Description of solution----------------------------

                                       pH  =   5.400    
                                       pe  =   4.000    
                        Activity of water  =   1.000
                 Ionic strength (mol/kgw)  =   1.040e-02
                       Mass of water (kg)  =   1.000e+00
                 Total alkalinity (eq/kg)  =   3.945e-04
                         Temperature (°C)  =  25.00
                  Electrical balance (eq)  =  -3.945e-04
 Percent error, 100*(Cat-|An|)/(Cat+|An|)  =  -1.93
                               Iterations  =   9
                                  Total H  = 1.110137e+02
                                  Total O  = 5.550683e+01

----------------------------Distribution of species----------------------------

                                               Log       Log       Log    mole V
   Species          Molality    Activity  Molality  Activity     Gamma   cm³/mol

   H+              4.422e-06   3.981e-06    -5.354    -5.400    -0.046      0.00
   OH-             2.815e-09   2.528e-09    -8.551    -8.597    -0.047     (0)  
   H2O             5.551e+01   9.997e-01     1.744    -0.000     0.000     18.07
Cl            1.000e-02
   Cl-             1.000e-02   9.003e-03    -2.000    -2.046    -0.046     (0)  
   ZnCl+           1.215e-09   1.093e-09    -8.915    -8.961    -0.046     (0)  
   ZnCl2           1.560e-11   1.560e-11   -10.807   -10.807     0.000     (0)  
   ZnOHCl          3.619e-12   3.619e-12   -11.441   -11.441     0.000     (0)  
   ZnCl3-          1.240e-13   1.116e-13   -12.907   -12.952    -0.046     (0)  
   ZnCl4-2         7.570e-16   5.022e-16   -15.121   -15.299    -0.178     (0)  
Edta          2.000e-04
   Zn(Edta)-2      1.990e-04   1.307e-04    -3.701    -3.884    -0.182     (0)  
   ZnH(Edta)-      9.593e-07   8.637e-07    -6.018    -6.064    -0.046     (0)  
   H2(Edta)-2      5.999e-08   3.715e-08    -7.222    -7.430    -0.208     (0)  
   H(Edta)-3       1.463e-08   4.977e-09    -7.835    -8.303    -0.468     (0)  
   H3(Edta)-       2.193e-10   1.945e-10    -9.659    -9.711    -0.052     (0)  
   ZnOH(Edta)-3    9.901e-11   3.848e-11   -10.004   -10.415    -0.410     (0)  
   Na(Edta)-3      1.869e-13   6.359e-14   -12.728   -13.197    -0.468     (0)  
   H4(Edta)        1.119e-13   1.119e-13   -12.951   -12.951     0.000     (0)  
   Edta-4          7.564e-14   1.409e-14   -13.121   -13.851    -0.730     (0)  
   H5(Edta)+       1.589e-17   1.409e-17   -16.799   -16.851    -0.052     (0)  
H(0)          2.239e-22
   H2              1.119e-22   1.122e-22   -21.951   -21.950     0.001     (0)  
Na            1.000e-02
   Na+             1.000e-02   9.003e-03    -2.000    -2.046    -0.046     (0)  
   Na(Edta)-3      1.869e-13   6.359e-14   -12.728   -13.197    -0.468     (0)  
O(0)          0.000e+00
   O2              0.000e+00   0.000e+00   -48.396   -48.395     0.001     (0)  
Zn            2.000e-04
   Zn(Edta)-2      1.990e-04   1.307e-04    -3.701    -3.884    -0.182     (0)  
   ZnH(Edta)-      9.593e-07   8.637e-07    -6.018    -6.064    -0.046     (0)  
   Zn+2            7.358e-08   4.834e-08    -7.133    -7.316    -0.182     (0)  
   ZnCl+           1.215e-09   1.093e-09    -8.915    -8.961    -0.046     (0)  
   ZnOH(Edta)-3    9.901e-11   3.848e-11   -10.004   -10.415    -0.410     (0)  
   ZnCl2           1.560e-11   1.560e-11   -10.807   -10.807     0.000     (0)  
   ZnOH+           1.378e-11   1.222e-11   -10.861   -10.913    -0.052     (0)  
   ZnOHCl          3.619e-12   3.619e-12   -11.441   -11.441     0.000     (0)  
   ZnCl3-          1.240e-13   1.116e-13   -12.907   -12.952    -0.046     (0)  
   Zn(OH)2         4.898e-15   4.898e-15   -14.310   -14.310     0.000     (0)  
   ZnCl4-2         7.570e-16   5.022e-16   -15.121   -15.299    -0.178     (0)  
   Zn(OH)3-        6.997e-20   6.207e-20   -19.155   -19.207    -0.052     (0)  
   Zn(OH)4-2       1.009e-26   6.248e-27   -25.996   -26.204    -0.208     (0)  

------------------------------Saturation indices-------------------------------

  Phase               SI** log IAP   log K(298 K,   1 atm)

  Halite           -5.69     -4.09    1.60  NaCl
  O2(g)           -45.49     37.60   83.09  O2
  Zincite          -7.85      3.48   11.33  ZnO
  Zn(OH)2          -8.72      3.48   12.20  Zn(OH)2
  Zn(OH)2(am)      -8.99      3.48   12.47  Zn(OH)2
  Zn(OH)2(beta)    -8.27      3.48   11.75  Zn(OH)2
  Zn(OH)2(epsilon)  -8.05      3.48   11.53  Zn(OH)2
  Zn(OH)2(gamma)   -8.25      3.48   11.73  Zn(OH)2
  Zn2(OH)3Cl      -15.67     -0.48   15.19  Zn2(OH)3Cl
  Zn5(OH)8Cl2     -35.97      2.53   38.50  Zn5(OH)8Cl2
  ZnCl2           -18.46    -11.41    7.05  ZnCl2
  Znmetal         -41.10    -15.32   25.79  Zn
  ZnO(active)      -7.70      3.48   11.19  ZnO

**For a gas, SI = log10(fugacity). Fugacity = pressure * phi / 1 atm.
  For ideal gases, phi = 1.

------------------
End of simulation.
------------------

-------------------------------------
Reading input data for simulation 16.
-------------------------------------

	SOLUTION 14
	pH		5.6
	Cl		0.01		mol/kgw
	Na		0.01		mol/kgw
	Zn	0.200 	mmol/kgw
	Edta  0.200 	mmol/kgw
	END
-------------------------------------------
Beginning of initial solution calculations.
-------------------------------------------

Initial solution 14.	

-----------------------------Solution composition------------------------------

	Elements           Molality       Moles

	Cl                1.000e-02   1.000e-02
	Edta              2.000e-04   2.000e-04
	Na                1.000e-02   1.000e-02
	Zn                2.000e-04   2.000e-04

----------------------------Description of solution----------------------------

                                       pH  =   5.600    
                                       pe  =   4.000    
                        Activity of water  =   1.000
                 Ionic strength (mol/kgw)  =   1.040e-02
                       Mass of water (kg)  =   1.000e+00
                 Total alkalinity (eq/kg)  =   3.965e-04
                         Temperature (°C)  =  25.00
                  Electrical balance (eq)  =  -3.965e-04
 Percent error, 100*(Cat-|An|)/(Cat+|An|)  =  -1.94
                               Iterations  =   9
                                  Total H  = 1.110137e+02
                                  Total O  = 5.550683e+01

----------------------------Distribution of species----------------------------

                                               Log       Log       Log    mole V
   Species          Molality    Activity  Molality  Activity     Gamma   cm³/mol

   H+              2.790e-06   2.512e-06    -5.554    -5.600    -0.046      0.00
   OH-             4.461e-09   4.007e-09    -8.351    -8.397    -0.047     (0)  
   H2O             5.551e+01   9.997e-01     1.744    -0.000     0.000     18.07
Cl            1.000e-02
   Cl-             1.000e-02   9.003e-03    -2.000    -2.046    -0.046     (0)  
   ZnCl+           8.096e-10   7.285e-10    -9.092    -9.138    -0.046     (0)  
   ZnCl2           1.039e-11   1.039e-11   -10.983   -10.983     0.000     (0)  
   ZnOHCl          3.822e-12   3.822e-12   -11.418   -11.418     0.000     (0)  
   ZnCl3-          8.262e-14   7.434e-14   -13.083   -13.129    -0.046     (0)  
   ZnCl4-2         5.044e-16   3.346e-16   -15.297   -15.475    -0.178     (0)  
Edta          2.000e-04
   Zn(Edta)-2      1.993e-04   1.310e-04    -3.700    -3.883    -0.182     (0)  
   ZnH(Edta)-      6.064e-07   5.460e-07    -6.217    -6.263    -0.046     (0)  
   H2(Edta)-2      3.591e-08   2.224e-08    -7.445    -7.653    -0.208     (0)  
   H(Edta)-3       1.388e-08   4.722e-09    -7.858    -8.326    -0.468     (0)  
   ZnOH(Edta)-3    1.572e-10   6.110e-11    -9.804   -10.214    -0.410     (0)  
   H3(Edta)-       8.282e-11   7.348e-11   -10.082   -10.134    -0.052     (0)  
   Na(Edta)-3      2.810e-13   9.562e-14   -12.551   -13.019    -0.468     (0)  
   Edta-4          1.137e-13   2.119e-14   -12.944   -13.674    -0.730     (0)  
   H4(Edta)        2.668e-14   2.668e-14   -13.574   -13.574     0.000     (0)  
   H5(Edta)+       2.389e-18   2.119e-18   -17.622   -17.674    -0.052     (0)  
H(0)          8.912e-23
   H2              4.456e-23   4.467e-23   -22.351   -22.350     0.001     (0)  
Na            1.000e-02
   Na+             1.000e-02   9.003e-03    -2.000    -2.046    -0.046     (0)  
   Na(Edta)-3      2.810e-13   9.562e-14   -12.551   -13.019    -0.468     (0)  
O(0)          0.000e+00
   O2              0.000e+00   0.000e+00   -47.596   -47.595     0.001     (0)  
Zn            2.000e-04
   Zn(Edta)-2      1.993e-04   1.310e-04    -3.700    -3.883    -0.182     (0)  
   ZnH(Edta)-      6.064e-07   5.460e-07    -6.217    -6.263    -0.046     (0)  
   Zn+2            4.903e-08   3.221e-08    -7.310    -7.492    -0.182     (0)  
   ZnCl+           8.096e-10   7.285e-10    -9.092    -9.138    -0.046     (0)  
   ZnOH(Edta)-3    1.572e-10   6.110e-11    -9.804   -10.214    -0.410     (0)  
   ZnOH+           1.455e-11   1.291e-11   -10.837   -10.889    -0.052     (0)  
   ZnCl2           1.039e-11   1.039e-11   -10.983   -10.983     0.000     (0)  
   ZnOHCl          3.822e-12   3.822e-12   -11.418   -11.418     0.000     (0)  
   ZnCl3-          8.262e-14   7.434e-14   -13.083   -13.129    -0.046     (0)  
   Zn(OH)2         8.198e-15   8.198e-15   -14.086   -14.086     0.000     (0)  
   ZnCl4-2         5.044e-16   3.346e-16   -15.297   -15.475    -0.178     (0)  
   Zn(OH)3-        1.856e-19   1.647e-19   -18.731   -18.783    -0.052     (0)  
   Zn(OH)4-2       4.241e-26   2.627e-26   -25.373   -25.581    -0.208     (0)  

------------------------------Saturation indices-------------------------------

  Phase               SI** log IAP   log K(298 K,   1 atm)

  Halite           -5.69     -4.09    1.60  NaCl
  O2(g)           -44.69     38.40   83.09  O2
[...]
   H3(Edta)-       1.501e-19   1.331e-19   -18.824   -18.876    -0.052     (0)  
   H4(Edta)        7.660e-27   7.660e-27   -26.116   -26.116     0.000     (0)  
   H5(Edta)+       1.087e-34   9.643e-35   -33.964   -34.016    -0.052     (0)  
H(0)          2.239e-30
   H2              1.119e-30   1.122e-30   -29.951   -29.950     0.001     (0)  
Na            1.000e-02
   Na+             1.000e-02   9.002e-03    -2.000    -2.046    -0.046     (0)  
   Na(Edta)-3      1.280e-10   4.351e-11    -9.893   -10.361    -0.468     (0)  
O(0)          8.028e-33
   O2              4.014e-33   4.024e-33   -32.396   -32.395     0.001     (0)  
Zn            2.000e-04
   Zn(Edta)-2      1.990e-04   1.307e-04    -3.701    -3.884    -0.183     (0)  
   ZnOH(Edta)-3    9.906e-07   3.847e-07    -6.004    -6.415    -0.411     (0)  
   Zn(OH)2         7.158e-10   7.158e-10    -9.145    -9.145     0.000     (0)  
   ZnOH+           2.014e-10   1.786e-10    -9.696    -9.748    -0.052     (0)  
   Zn+2            1.076e-10   7.065e-11    -9.968   -10.151    -0.183     (0)  
   Zn(OH)3-        1.023e-10   9.071e-11    -9.990   -10.042    -0.052     (0)  
   ZnH(Edta)-      9.593e-11   8.636e-11   -10.018   -10.064    -0.046     (0)  
   ZnOHCl          5.288e-11   5.288e-11   -10.277   -10.277     0.000     (0)  
   ZnCl+           1.776e-12   1.598e-12   -11.751   -11.797    -0.046     (0)  
   Zn(OH)4-2       1.475e-13   9.130e-14   -12.831   -13.040    -0.208     (0)  
   ZnCl2           2.279e-14   2.279e-14   -13.642   -13.642     0.000     (0)  
   ZnCl3-          1.812e-16   1.630e-16   -15.742   -15.788    -0.046     (0)  
   ZnCl4-2         1.106e-18   7.337e-19   -17.956   -18.134    -0.178     (0)  

------------------------------Saturation indices-------------------------------

  Phase               SI** log IAP   log K(298 K,   1 atm)

  Halite           -5.69     -4.09    1.60  NaCl
  O2(g)           -29.49     53.60   83.09  O2
  Zincite          -2.69      8.65   11.33  ZnO
  Zn(OH)2          -3.55      8.65   12.20  Zn(OH)2
  Zn(OH)2(am)      -3.83      8.65   12.47  Zn(OH)2
  Zn(OH)2(beta)    -3.11      8.65   11.75  Zn(OH)2
  Zn(OH)2(epsilon)  -2.89      8.65   11.53  Zn(OH)2
  Zn(OH)2(gamma)   -3.09      8.65   11.73  Zn(OH)2
  Zn2(OH)3Cl       -9.34      5.85   15.19  Zn2(OH)3Cl
  Zn5(OH)8Cl2     -18.15     20.35   38.50  Zn5(OH)8Cl2
  ZnCl2           -21.29    -14.24    7.05  ZnCl2
  Znmetal         -43.94    -18.15   25.79  Zn
  ZnO(active)      -2.54      8.65   11.19  ZnO

**For a gas, SI = log10(fugacity). Fugacity = pressure * phi / 1 atm.
  For ideal gases, phi = 1.

------------------
End of simulation.
------------------

-------------------------------------
Reading input data for simulation 36.
-------------------------------------

	SOLUTION 34
	pH		9.6
	Cl		0.01		mol/kgw
	Na		0.01		mol/kgw
	Zn	0.200 	mmol/kgw
	Edta  0.200 	mmol/kgw
	END
-------------------------------------------
Beginning of initial solution calculations.
-------------------------------------------

Initial solution 34.	

-----------------------------Solution composition------------------------------

	Elements           Molality       Moles

	Cl                1.000e-02   1.000e-02
	Edta              2.000e-04   2.000e-04
	Na                1.000e-02   1.000e-02
	Zn                2.000e-04   2.000e-04

----------------------------Description of solution----------------------------

                                       pH  =   9.600    
                                       pe  =   4.000    
                        Activity of water  =   1.000
                 Ionic strength (mol/kgw)  =   1.043e-02
                       Mass of water (kg)  =   1.000e+00
                 Total alkalinity (eq/kg)  =   4.462e-04
                         Temperature (°C)  =  25.00
                  Electrical balance (eq)  =  -4.462e-04
 Percent error, 100*(Cat-|An|)/(Cat+|An|)  =  -2.18
                               Iterations  =   6
                                  Total H  = 1.110137e+02
                                  Total O  = 5.550688e+01

----------------------------Distribution of species----------------------------

                                               Log       Log       Log    mole V
   Species          Molality    Activity  Molality  Activity     Gamma   cm³/mol

   OH-             4.461e-05   4.007e-05    -4.351    -4.397    -0.047     (0)  
   H+              2.790e-10   2.512e-10    -9.554    -9.600    -0.046      0.00
   H2O             5.551e+01   9.997e-01     1.744    -0.000     0.000     18.07
Cl            1.000e-02
   Cl-             1.000e-02   9.002e-03    -2.000    -2.046    -0.046     (0)  
   ZnOHCl          4.574e-11   4.574e-11   -10.340   -10.340     0.000     (0)  
   ZnCl+           9.692e-13   8.719e-13   -12.014   -12.060    -0.046     (0)  
   ZnCl2           1.244e-14   1.244e-14   -13.905   -13.905     0.000     (0)  
   ZnCl3-          9.887e-17   8.895e-17   -16.005   -16.051    -0.046     (0)  
   ZnCl4-2         6.038e-19   4.004e-19   -18.219   -18.397    -0.178     (0)  
Edta          2.000e-04
   Zn(Edta)-2      1.984e-04   1.303e-04    -3.702    -3.885    -0.183     (0)  
   ZnOH(Edta)-3    1.566e-06   6.079e-07    -5.805    -6.216    -0.411     (0)  
   H(Edta)-3       1.155e-09   3.925e-10    -8.937    -9.406    -0.469     (0)  
   Na(Edta)-3      2.338e-10   7.947e-11    -9.631   -10.100    -0.469     (0)  
   Edta-4          9.470e-11   1.761e-11   -10.024   -10.754    -0.731     (0)  
   ZnH(Edta)-      6.034e-11   5.432e-11   -10.219   -10.265    -0.046     (0)  
   H2(Edta)-2      2.986e-13   1.849e-13   -12.525   -12.733    -0.208     (0)  
   H3(Edta)-       6.885e-20   6.107e-20   -19.162   -19.214    -0.052     (0)  
   H4(Edta)        2.217e-27   2.217e-27   -26.654   -26.654     0.000     (0)  
   H5(Edta)+       1.986e-35   1.761e-35   -34.702   -34.754    -0.052     (0)  
H(0)          8.912e-31
   H2              4.456e-31   4.467e-31   -30.351   -30.350     0.001     (0)  
Na            1.000e-02
   Na+             1.000e-02   9.002e-03    -2.000    -2.046    -0.046     (0)  
   Na(Edta)-3      2.338e-10   7.947e-11    -9.631   -10.100    -0.469     (0)  
O(0)          5.065e-32
   O2              2.533e-32   2.539e-32   -31.596   -31.595     0.001     (0)  
Zn            2.000e-04
   Zn(Edta)-2      1.984e-04   1.303e-04    -3.702    -3.885    -0.183     (0)  
   ZnOH(Edta)-3    1.566e-06   6.079e-07    -5.805    -6.216    -0.411     (0)  
   Zn(OH)2         9.814e-10   9.814e-10    -9.008    -9.008     0.000     (0)  
   Zn(OH)3-        2.222e-10   1.971e-10    -9.653    -9.705    -0.052     (0)  
   ZnOH+           1.742e-10   1.545e-10    -9.759    -9.811    -0.052     (0)  
   ZnH(Edta)-      6.034e-11   5.432e-11   -10.219   -10.265    -0.046     (0)  
   Zn+2            5.872e-11   3.856e-11   -10.231   -10.414    -0.183     (0)  
   ZnOHCl          4.574e-11   4.574e-11   -10.340   -10.340     0.000     (0)  
   ZnCl+           9.692e-13   8.719e-13   -12.014   -12.060    -0.046     (0)  
   Zn(OH)4-2       5.080e-13   3.144e-13   -12.294   -12.502    -0.208     (0)  
   ZnCl2           1.244e-14   1.244e-14   -13.905   -13.905     0.000     (0)  
   ZnCl3-          9.887e-17   8.895e-17   -16.005   -16.051    -0.046     (0)  
   ZnCl4-2         6.038e-19   4.004e-19   -18.219   -18.397    -0.178     (0)  

------------------------------Saturation indices-------------------------------

  Phase               SI** log IAP   log K(298 K,   1 atm)

  Halite           -5.69     -4.09    1.60  NaCl
  O2(g)           -28.69     54.40   83.09  O2
  Zincite          -2.55      8.79   11.33  ZnO
  Zn(OH)2          -3.41      8.79   12.20  Zn(OH)2
  Zn(OH)2(am)      -3.69      8.79   12.47  Zn(OH)2
  Zn(OH)2(beta)    -2.97      8.79   11.75  Zn(OH)2
  Zn(OH)2(epsilon)  -2.75      8.79   11.53  Zn(OH)2
  Zn(OH)2(gamma)   -2.95      8.79   11.73  Zn(OH)2
  Zn2(OH)3Cl       -9.26      5.93   15.19  Zn2(OH)3Cl
  Zn5(OH)8Cl2     -17.86     20.64   38.50  Zn5(OH)8Cl2
  ZnCl2           -21.56    -14.51    7.05  ZnCl2
  Znmetal         -44.20    -18.41   25.79  Zn
  ZnO(active)      -2.40      8.79   11.19  ZnO

**For a gas, SI = log10(fugacity). Fugacity = pressure * phi / 1 atm.
  For ideal gases, phi = 1.

------------------
End of simulation.
------------------

-------------------------------------
Reading input data for simulation 37.
-------------------------------------

	SOLUTION 35
	pH		9.8
	Cl		0.01		mol/kgw
	Na		0.01		mol/kgw
	Zn	0.200 	mmol/kgw
	Edta  0.200 	mmol/kgw
	END
-------------------------------------------
Beginning of initial solution calculations.
-------------------------------------------

Initial solution 35.	

-----------------------------Solution composition------------------------------

	Elements           Molality       Moles

	Cl                1.000e-02   1.000e-02
	Edta              2.000e-04   2.000e-04
	Na                1.000e-02   1.000e-02
	Zn                2.000e-04   2.000e-04

----------------------------Description of solution----------------------------

                                       pH  =   9.800    
                                       pe  =   4.000    
                        Activity of water  =   1.000
                 Ionic strength (mol/kgw)  =   1.044e-02
                       Mass of water (kg)  =   1.000e+00
                 Total alkalinity (eq/kg)  =   4.732e-04
                         Temperature (°C)  =  25.00
                  Electrical balance (eq)  =  -4.732e-04
 Percent error, 100*(Cat-|An|)/(Cat+|An|)  =  -2.31
                               Iterations  =   6
                                  Total H  = 1.110137e+02
                                  Total O  = 5.550691e+01

----------------------------Distribution of species----------------------------

                                               Log       Log       Log    mole V
   Species          Molality    Activity  Molality  Activity     Gamma   cm³/mol

   OH-             7.071e-05   6.351e-05    -4.151    -4.197    -0.047     (0)  
   H+              1.761e-10   1.585e-10    -9.754    -9.800    -0.046      0.00
   H2O             5.551e+01   9.997e-01     1.744    -0.000     0.000     18.07
Cl            1.000e-02
   Cl-             1.000e-02   9.001e-03    -2.000    -2.046    -0.046     (0)  
   ZnOHCl          3.836e-11   3.836e-11   -10.416   -10.416     0.000     (0)  
   ZnCl+           5.128e-13   4.613e-13   -12.290   -12.336    -0.046     (0)  
   ZnCl2           6.581e-15   6.581e-15   -14.182   -14.182     0.000     (0)  
   ZnCl3-          5.231e-17   4.706e-17   -16.281   -16.327    -0.046     (0)  
   ZnCl4-2         3.195e-19   2.118e-19   -18.496   -18.674    -0.179     (0)  
Edta          2.000e-04
   Zn(Edta)-2      1.975e-04   1.297e-04    -3.704    -3.887    -0.183     (0)  
   ZnOH(Edta)-3    2.471e-06   9.588e-07    -5.607    -6.018    -0.411     (0)  
   H(Edta)-3       1.372e-09   4.658e-10    -8.863    -9.332    -0.469     (0)  
   Na(Edta)-3      4.401e-10   1.495e-10    -9.356    -9.826    -0.469     (0)  
   Edta-4          1.783e-10   3.313e-11    -9.749   -10.480    -0.731     (0)  
   ZnH(Edta)-      3.789e-11   3.411e-11   -10.421   -10.467    -0.046     (0)  
   H2(Edta)-2      2.237e-13   1.384e-13   -12.650   -12.859    -0.208     (0)  
   H3(Edta)-       3.253e-20   2.885e-20   -19.488   -19.540    -0.052     (0)  
   H4(Edta)        6.610e-28   6.610e-28   -27.180   -27.180     0.000     (0)  
   H5(Edta)+       3.735e-36   3.313e-36   -35.428   -35.480    -0.052     (0)  
H(0)          3.548e-31
   H2              1.774e-31   1.778e-31   -30.751   -30.750     0.001     (0)  
Na            1.000e-02
   Na+             1.000e-02   9.001e-03    -2.000    -2.046    -0.046     (0)  
   Na(Edta)-3      4.401e-10   1.495e-10    -9.356    -9.826    -0.469     (0)  
O(0)          3.196e-31
   O2              1.598e-31   1.602e-31   -30.796   -30.795     0.001     (0)  
Zn            2.000e-04
   Zn(Edta)-2      1.975e-04   1.297e-04    -3.704    -3.887    -0.183     (0)  
   ZnOH(Edta)-3    2.471e-06   9.588e-07    -5.607    -6.018    -0.411     (0)  
   Zn(OH)2         1.304e-09   1.304e-09    -8.885    -8.885     0.000     (0)  
   Zn(OH)3-        4.681e-10   4.152e-10    -9.330    -9.382    -0.052     (0)  
   ZnOH+           1.461e-10   1.296e-10    -9.835    -9.887    -0.052     (0)  
   ZnOHCl          3.836e-11   3.836e-11   -10.416   -10.416     0.000     (0)  
   ZnH(Edta)-      3.789e-11   3.411e-11   -10.421   -10.467    -0.046     (0)  
   Zn+2            3.108e-11   2.040e-11   -10.508   -10.690    -0.183     (0)  
   Zn(OH)4-2       1.697e-12   1.050e-12   -11.770   -11.979    -0.208     (0)  
   ZnCl+           5.128e-13   4.613e-13   -12.290   -12.336    -0.046     (0)  
   ZnCl2           6.581e-15   6.581e-15   -14.182   -14.182     0.000     (0)  
   ZnCl3-          5.231e-17   4.706e-17   -16.281   -16.327    -0.046     (0)  
   ZnCl4-2         3.195e-19   2.118e-19   -18.496   -18.674    -0.179     (0)  

------------------------------Saturation indices-------------------------------

  Phase               SI** log IAP   log K(298 K,   1 atm)

  Halite           -5.69     -4.09    1.60  NaCl
  O2(g)           -27.89     55.20   83.09  O2
  Zincite          -2.42      8.91   11.33  ZnO
  Zn(OH)2          -3.29      8.91   12.20  Zn(OH)2
  Zn(OH)2(am)      -3.56      8.91   12.47  Zn(OH)2
  Zn(OH)2(beta)    -2.84      8.91   11.75  Zn(OH)2
  Zn(OH)2(epsilon)  -2.62      8.91   11.53  Zn(OH)2
  Zn(OH)2(gamma)   -2.82      8.91   11.73  Zn(OH)2
  Zn2(OH)3Cl       -9.22      5.97   15.19  Zn2(OH)3Cl
  Zn5(OH)8Cl2     -17.64     20.86   38.50  Zn5(OH)8Cl2
  ZnCl2           -21.83    -14.78    7.05  ZnCl2
  Znmetal         -44.48    -18.69   25.79  Zn
  ZnO(active)      -2.28      8.91   11.19  ZnO

**For a gas, SI = log10(fugacity). Fugacity = pressure * phi / 1 atm.
  For ideal gases, phi = 1.

------------------
End of simulation.
------------------

-------------------------------------
Reading input data for simulation 38.
-------------------------------------

	SOLUTION 36
	pH		10.0
	Cl		0.01		mol/kgw
	Na		0.01		mol/kgw
	Zn	0.200 	mmol/kgw
	Edta  0.200 	mmol/kgw
	END
-------------------------------------------
Beginning of initial solution calculations.
-------------------------------------------

Initial solution 36.	

-----------------------------Solution composition------------------------------

	Elements           Molality       Moles

	Cl                1.000e-02   1.000e-02
	Edta              2.000e-04   2.000e-04
	Na                1.000e-02   1.000e-02
	Zn                2.000e-04   2.000e-04

----------------------------Description of solution----------------------------

                                       pH  =  10.000    
                                       pe  =   4.000    
                        Activity of water  =   1.000
                 Ionic strength (mol/kgw)  =   1.047e-02
                       Mass of water (kg)  =   1.000e+00
                 Total alkalinity (eq/kg)  =   5.160e-04
                         Temperature (°C)  =  25.00
                  Electrical balance (eq)  =  -5.160e-04
 Percent error, 100*(Cat-|An|)/(Cat+|An|)  =  -2.52
                               Iterations  =   6
                                  Total H  = 1.110138e+02
                                  Total O  = 5.550695e+01

----------------------------Distribution of species----------------------------

                                               Log       Log       Log    mole V
   Species          Molality    Activity  Molality  Activity     Gamma   cm³/mol

   OH-             1.121e-04   1.007e-04    -3.950    -3.997    -0.047     (0)  
   H+              1.111e-10   1.000e-10    -9.954   -10.000    -0.046      0.00
   H2O             5.551e+01   9.997e-01     1.744    -0.000     0.000     18.07
Cl            1.000e-02
   Cl-             1.000e-02   9.001e-03    -2.000    -2.046    -0.046     (0)  
   ZnOHCl          3.155e-11   3.155e-11   -10.501   -10.501     0.000     (0)  
   ZnCl+           2.661e-13   2.394e-13   -12.575   -12.621    -0.046     (0)  
   ZnCl2           3.415e-15   3.415e-15   -14.467   -14.467     0.000     (0)  
   ZnCl3-          2.714e-17   2.441e-17   -16.566   -16.612    -0.046     (0)  
   ZnCl4-2         1.658e-19   1.099e-19   -18.780   -18.959    -0.179     (0)  
Edta          2.000e-04
   Zn(Edta)-2      1.961e-04   1.287e-04    -3.708    -3.890    -0.183     (0)  
   ZnOH(Edta)-3    3.891e-06   1.508e-06    -5.410    -5.822    -0.412     (0)  
   H(Edta)-3       1.657e-09   5.620e-10    -8.781    -9.250    -0.470     (0)  
   Na(Edta)-3      8.425e-10   2.858e-10    -9.074    -9.544    -0.470     (0)  
   Edta-4          3.416e-10   6.335e-11    -9.467   -10.198    -0.732     (0)  
   ZnH(Edta)-      2.373e-11   2.136e-11   -10.625   -10.670    -0.046     (0)  
   H2(Edta)-2      1.704e-13   1.054e-13   -12.769   -12.977    -0.209     (0)  
   H3(Edta)-       1.563e-20   1.386e-20   -19.806   -19.858    -0.052     (0)  
   H4(Edta)        2.003e-28   2.003e-28   -27.698   -27.698     0.000     (0)  
   H5(Edta)+       7.143e-37   6.335e-37   -36.146   -36.198    -0.052     (0)  
H(0)          1.412e-31
   H2              7.062e-32   7.079e-32   -31.151   -31.150     0.001     (0)  
Na            1.000e-02
   Na+             1.000e-02   9.001e-03    -2.000    -2.046    -0.046     (0)  
   Na(Edta)-3      8.425e-10   2.858e-10    -9.074    -9.544    -0.470     (0)  
O(0)          2.017e-30
   O2              1.008e-30   1.011e-30   -29.996   -29.995     0.001     (0)  
Zn            2.000e-04
   Zn(Edta)-2      1.961e-04   1.287e-04    -3.708    -3.890    -0.183     (0)  
   ZnOH(Edta)-3    3.891e-06   1.508e-06    -5.410    -5.822    -0.412     (0)  
   Zn(OH)2         1.700e-09   1.700e-09    -8.769    -8.769     0.000     (0)  
   Zn(OH)3-        9.673e-10   8.578e-10    -9.014    -9.067    -0.052     (0)  
   ZnOH+           1.202e-10   1.066e-10    -9.920    -9.972    -0.052     (0)  
   ZnOHCl          3.155e-11   3.155e-11   -10.501   -10.501     0.000     (0)  
   ZnH(Edta)-      2.373e-11   2.136e-11   -10.625   -10.670    -0.046     (0)  
   Zn+2            1.613e-11   1.059e-11   -10.792   -10.975    -0.183     (0)  
   Zn(OH)4-2       5.558e-12   3.437e-12   -11.255   -11.464    -0.209     (0)  
   ZnCl+           2.661e-13   2.394e-13   -12.575   -12.621    -0.046     (0)  
   ZnCl2           3.415e-15   3.415e-15   -14.467   -14.467     0.000     (0)  
   ZnCl3-          2.714e-17   2.441e-17   -16.566   -16.612    -0.046     (0)  
   ZnCl4-2         1.658e-19   1.099e-19   -18.780   -18.959    -0.179     (0)  

------------------------------Saturation indices-------------------------------

  Phase               SI** log IAP   log K(298 K,   1 atm)

  Halite           -5.69     -4.09    1.60  NaCl
  O2(g)           -27.09     56.00   83.09  O2
  Zincite          -2.31      9.02   11.33  ZnO
  Zn(OH)2          -3.18      9.02   12.20  Zn(OH)2
  Zn(OH)2(am)      -3.45      9.02   12.47  Zn(OH)2
  Zn(OH)2(beta)    -2.73      9.02   11.75  Zn(OH)2
  Zn(OH)2(epsilon)  -2.51      9.02   11.53  Zn(OH)2
  Zn(OH)2(gamma)   -2.71      9.02   11.73  Zn(OH)2
  Zn2(OH)3Cl       -9.19      6.00   15.19  Zn2(OH)3Cl
  Zn5(OH)8Cl2     -17.47     21.03   38.50  Zn5(OH)8Cl2
  ZnCl2           -22.12    -15.07    7.05  ZnCl2
  Znmetal         -44.76    -18.98   25.79  Zn
  ZnO(active)      -2.16      9.02   11.19  ZnO

**For a gas, SI = log10(fugacity). Fugacity = pressure * phi / 1 atm.
  For ideal gases, phi = 1.

------------------
End of simulation.
------------------

-------------------------------------
Reading input data for simulation 39.
-------------------------------------

----------------------------------
End of Run after 0.064129 Seconds.
----------------------------------

