   Input file: /Users/wangjincheng/Desktop/irp-jw21-main/Project_jw21/pqi/0.2ZnEdta.pqi
  Output file: /Users/wangjincheng/Desktop/irp-jw21-main/Project_jw21/pqo/0.2ZnEdta.pqi.pqi.out
Database file: /Users/wangjincheng/Desktop/irp-jw21-main/Project_jw21/phreeqc/database/minteq.v4.dat

------------------
Reading data base.
------------------

	SOLUTION_MASTER_SPECIES
	SOLUTION_SPECIES
	SOLUTION_SPECIES
	PHASES
	PHASES
	SURFACE_MASTER_SPECIES
	SURFACE_SPECIES
	END
------------------------------------
Reading input data for simulation 1.
------------------------------------

	DATABASE /Users/wangjincheng/Desktop/irp-jw21-main/Project_jw21/phreeqc/database/minteq.v4.dat
	TITLE 04_SURFACE_COMPLEXATION
	SOLUTION_MASTER_SPECIES
	Zn		Zn+2		0.0	Zn	65.39
	Edta		Edta-4		2.0	288.214	288.214
	END
-----
TITLE
-----

 04_SURFACE_COMPLEXATION

------------------
End of simulation.
------------------

------------------------------------
Reading input data for simulation 2.
------------------------------------

	SOLUTION_SPECIES
	Zn+2 + Edta-4 = Zn(Edta)-2
	log_k		15.968
	Zn+2 + Edta-4 + H+ = ZnH(Edta)-
	log_k		18.86
	Zn+2 + Edta-4 + H2O = ZnOH(Edta)-3 + H+
	log_k		4.53
	END
------------------
End of simulation.
------------------

------------------------------------
Reading input data for simulation 3.
------------------------------------

	SOLUTION 1
	pH		3.0
	Cl		0.2		mol/kgw
	Na		0.2		mol/kgw
	Zn	0.200 	mmol/kgw
	Edta  0.200 	mmol/kgw
	END
-------------------------------------------
Beginning of initial solution calculations.
-------------------------------------------

Initial solution 1.	

-----------------------------Solution composition------------------------------

	Elements           Molality       Moles

	Cl                2.000e-01   2.000e-01
	Edta              2.000e-04   2.000e-04
	Na                2.000e-01   2.000e-01
	Zn                2.000e-04   2.000e-04

----------------------------Description of solution----------------------------

                                       pH  =   3.000    
                                       pe  =   4.000    
                        Activity of water  =   0.993
                 Ionic strength (mol/kgw)  =   2.012e-01
                       Mass of water (kg)  =   1.000e+00
                 Total alkalinity (eq/kg)  =  -1.226e-03
                         Temperature (°C)  =  25.00
                  Electrical balance (eq)  =   1.226e-03
 Percent error, 100*(Cat-|An|)/(Cat+|An|)  =   0.31
                               Iterations  =  10
                                  Total H  = 1.110153e+02
                                  Total O  = 5.550683e+01

----------------------------Distribution of species----------------------------

                                               Log       Log       Log    mole V
   Species          Molality    Activity  Molality  Activity     Gamma   cm³/mol

   H+              1.340e-03   1.000e-03    -2.873    -3.000    -0.127      0.00
   OH-             1.416e-11   1.000e-11   -10.849   -11.000    -0.151     (0)  
   H2O             5.551e+01   9.932e-01     1.744    -0.003     0.000     18.07
Cl            2.000e-01
   Cl-             2.000e-01   1.492e-01    -0.699    -0.826    -0.127     (0)  
   ZnCl+           1.608e-05   1.154e-05    -4.794    -4.938    -0.144     (0)  
   ZnCl2           2.730e-06   2.730e-06    -5.564    -5.564     0.000     (0)  
   ZnCl3-          4.507e-07   3.235e-07    -6.346    -6.490    -0.144     (0)  
   ZnCl4-2         8.122e-08   2.414e-08    -7.090    -7.617    -0.527     (0)  
   ZnOHCl          1.511e-10   1.511e-10    -9.821    -9.821     0.000     (0)  
Edta          2.000e-04
   H2(Edta)-2      9.109e-05   1.108e-05    -4.041    -4.956    -0.915     (0)  
   Zn(Edta)-2      6.144e-05   1.905e-05    -4.212    -4.720    -0.509     (0)  
   H3(Edta)-       2.467e-05   1.457e-05    -4.608    -4.837    -0.229     (0)  
   ZnH(Edta)-      1.991e-05   1.485e-05    -4.701    -4.828    -0.127     (0)  
   H4(Edta)        2.106e-06   2.106e-06    -5.677    -5.677     0.000     (0)  
   H(Edta)-3       6.766e-07   5.907e-09    -6.170    -8.229    -2.059     (0)  
   H5(Edta)+       1.128e-07   6.659e-08    -6.948    -7.177    -0.229     (0)  
   ZnOH(Edta)-3    9.620e-13   6.900e-14   -12.017   -13.161    -1.144     (0)  
   Na(Edta)-3      5.705e-13   4.981e-15   -12.244   -14.303    -2.059     (0)  
   Edta-4          7.207e-15   6.659e-17   -14.142   -16.177    -2.034     (0)  
H(0)          1.352e-17
   H2              6.759e-18   7.079e-18   -17.170   -17.150     0.020     (0)  
Na            2.000e-01
   Na+             2.000e-01   1.492e-01    -0.699    -0.826    -0.127     (0)  
   Na(Edta)-3      5.705e-13   4.981e-15   -12.244   -14.303    -2.059     (0)  
O(0)          0.000e+00
   O2              0.000e+00   0.000e+00   -58.021   -58.001     0.020     (0)  
Zn            2.000e-04
   Zn+2            9.932e-05   3.079e-05    -4.003    -4.512    -0.509     (0)  
   Zn(Edta)-2      6.144e-05   1.905e-05    -4.212    -4.720    -0.509     (0)  
   ZnH(Edta)-      1.991e-05   1.485e-05    -4.701    -4.828    -0.127     (0)  
   ZnCl+           1.608e-05   1.154e-05    -4.794    -4.938    -0.144     (0)  
   ZnCl2           2.730e-06   2.730e-06    -5.564    -5.564     0.000     (0)  
   ZnCl3-          4.507e-07   3.235e-07    -6.346    -6.490    -0.144     (0)  
   ZnCl4-2         8.122e-08   2.414e-08    -7.090    -7.617    -0.527     (0)  
   ZnOHCl          1.511e-10   1.511e-10    -9.821    -9.821     0.000     (0)  
   ZnOH+           5.215e-11   3.079e-11   -10.283   -10.512    -0.229     (0)  
   ZnOH(Edta)-3    9.620e-13   6.900e-14   -12.017   -13.161    -1.144     (0)  
   Zn(OH)2         4.881e-17   4.881e-17   -16.312   -16.312     0.000     (0)  
   Zn(OH)3-        4.143e-24   2.446e-24   -23.383   -23.611    -0.229     (0)  
   Zn(OH)4-2       8.010e-33   9.740e-34   -32.096   -33.011    -0.915     (0)  

------------------------------Saturation indices-------------------------------

  Phase               SI** log IAP   log K(298 K,   1 atm)

  Halite           -3.25     -1.65    1.60  NaCl
  O2(g)           -55.10     27.99   83.09  O2
  Zincite          -9.85      1.49   11.33  ZnO
  Zn(OH)2         -10.72      1.48   12.20  Zn(OH)2
  Zn(OH)2(am)     -10.99      1.48   12.47  Zn(OH)2
  Zn(OH)2(beta)   -10.27      1.48   11.75  Zn(OH)2
  Zn(OH)2(epsilon) -10.05      1.48   11.53  Zn(OH)2
  Zn(OH)2(gamma)  -10.25      1.48   11.73  Zn(OH)2
  Zn2(OH)3Cl      -16.05     -0.86   15.19  Zn2(OH)3Cl
  Zn5(OH)8Cl2     -38.73     -0.23   38.50  Zn5(OH)8Cl2
  ZnCl2           -13.21     -6.16    7.05  ZnCl2
  Znmetal         -38.30    -12.51   25.79  Zn
  ZnO(active)      -9.70      1.49   11.19  ZnO

**For a gas, SI = log10(fugacity). Fugacity = pressure * phi / 1 atm.
  For ideal gases, phi = 1.

------------------
End of simulation.
------------------

------------------------------------
Reading input data for simulation 4.
------------------------------------

	SOLUTION 2
	pH		3.2
	Cl		0.2		mol/kgw
	Na		0.2		mol/kgw
	Zn	0.200 	mmol/kgw
	Edta  0.200 	mmol/kgw
	END
-------------------------------------------
Beginning of initial solution calculations.
-------------------------------------------

Initial solution 2.	

-----------------------------Solution composition------------------------------

	Elements           Molality       Moles

	Cl                2.000e-01   2.000e-01
	Edta              2.000e-04   2.000e-04
	Na                2.000e-01   2.000e-01
	Zn                2.000e-04   2.000e-04

----------------------------Description of solution----------------------------

                                       pH  =   3.200    
                                       pe  =   4.000    
                        Activity of water  =   0.993
                 Ionic strength (mol/kgw)  =   2.009e-01
                       Mass of water (kg)  =   1.000e+00
                 Total alkalinity (eq/kg)  =  -6.538e-04
                         Temperature (°C)  =  25.00
                  Electrical balance (eq)  =   6.538e-04
 Percent error, 100*(Cat-|An|)/(Cat+|An|)  =   0.16
                               Iterations  =  10
                                  Total H  = 1.110147e+02
                                  Total O  = 5.550683e+01

----------------------------Distribution of species----------------------------

                                               Log       Log       Log    mole V
   Species          Molality    Activity  Molality  Activity     Gamma   cm³/mol

   H+              8.455e-04   6.310e-04    -3.073    -3.200    -0.127      0.00
   OH-             2.243e-11   1.585e-11   -10.649   -10.800    -0.151     (0)  
   H2O             5.551e+01   9.932e-01     1.744    -0.003     0.000     18.07
Cl            2.000e-01
   Cl-             2.000e-01   1.492e-01    -0.699    -0.826    -0.127     (0)  
   ZnCl+           1.193e-05   8.567e-06    -4.923    -5.067    -0.144     (0)  
   ZnCl2           2.026e-06   2.026e-06    -5.693    -5.693     0.000     (0)  
   ZnCl3-          3.346e-07   2.402e-07    -6.476    -6.619    -0.144     (0)  
   ZnCl4-2         6.028e-08   1.793e-08    -7.220    -7.747    -0.527     (0)  
   ZnOHCl          1.778e-10   1.778e-10    -9.750    -9.750     0.000     (0)  
Edta          2.000e-04
   Zn(Edta)-2      9.295e-05   2.883e-05    -4.032    -4.540    -0.508     (0)  
   H2(Edta)-2      7.384e-05   8.992e-06    -4.132    -5.046    -0.914     (0)  
   ZnH(Edta)-      1.901e-05   1.418e-05    -4.721    -4.848    -0.127     (0)  
   H3(Edta)-       1.263e-05   7.462e-06    -4.899    -5.127    -0.229     (0)  
   H(Edta)-3       8.677e-07   7.600e-09    -6.062    -8.119    -2.058     (0)  
   H4(Edta)        6.805e-07   6.805e-07    -6.167    -6.167     0.000     (0)  
   H5(Edta)+       2.299e-08   1.358e-08    -7.639    -7.867    -0.229     (0)  
   ZnOH(Edta)-3    2.306e-12   1.655e-13   -11.637   -12.781    -1.144     (0)  
   Na(Edta)-3      1.160e-12   1.016e-14   -11.936   -13.993    -2.058     (0)  
   Edta-4          1.468e-14   1.358e-16   -13.833   -15.867    -2.034     (0)  
H(0)          5.382e-18
   H2              2.691e-18   2.818e-18   -17.570   -17.550     0.020     (0)  
Na            2.000e-01
   Na+             2.000e-01   1.493e-01    -0.699    -0.826    -0.127     (0)  
   Na(Edta)-3      1.160e-12   1.016e-14   -11.936   -13.993    -2.058     (0)  
O(0)          0.000e+00
   O2              0.000e+00   0.000e+00   -57.221   -57.201     0.020     (0)  
Zn            2.000e-04
   Zn(Edta)-2      9.295e-05   2.883e-05    -4.032    -4.540    -0.508     (0)  
   Zn+2            7.369e-05   2.285e-05    -4.133    -4.641    -0.508     (0)  
   ZnH(Edta)-      1.901e-05   1.418e-05    -4.721    -4.848    -0.127     (0)  
   ZnCl+           1.193e-05   8.567e-06    -4.923    -5.067    -0.144     (0)  
   ZnCl2           2.026e-06   2.026e-06    -5.693    -5.693     0.000     (0)  
   ZnCl3-          3.346e-07   2.402e-07    -6.476    -6.619    -0.144     (0)  
   ZnCl4-2         6.028e-08   1.793e-08    -7.220    -7.747    -0.527     (0)  
   ZnOHCl          1.778e-10   1.778e-10    -9.750    -9.750     0.000     (0)  
   ZnOH+           6.132e-11   3.622e-11   -10.212   -10.441    -0.229     (0)  
   ZnOH(Edta)-3    2.306e-12   1.655e-13   -11.637   -12.781    -1.144     (0)  
   Zn(OH)2         9.099e-17   9.099e-17   -16.041   -16.041     0.000     (0)  
   Zn(OH)3-        1.224e-23   7.228e-24   -22.912   -23.141    -0.229     (0)  
   Zn(OH)4-2       3.746e-32   4.561e-33   -31.426   -32.341    -0.914     (0)  

------------------------------Saturation indices-------------------------------

  Phase               SI** log IAP   log K(298 K,   1 atm)

  Halite           -3.25     -1.65    1.60  NaCl
  O2(g)           -54.30     28.79   83.09  O2
  Zincite          -9.58      1.76   11.33  ZnO
  Zn(OH)2         -10.45      1.75   12.20  Zn(OH)2
  Zn(OH)2(am)     -10.72      1.75   12.47  Zn(OH)2
  Zn(OH)2(beta)   -10.00      1.75   11.75  Zn(OH)2
  Zn(OH)2(epsilon)  -9.78      1.75   11.53  Zn(OH)2
  Zn(OH)2(gamma)   -9.98      1.75   11.73  Zn(OH)2
  Zn2(OH)3Cl      -15.71     -0.52   15.19  Zn2(OH)3Cl
  Zn5(OH)8Cl2     -37.78      0.72   38.50  Zn5(OH)8Cl2
  ZnCl2           -13.34     -6.29    7.05  ZnCl2
  Znmetal         -38.43    -12.64   25.79  Zn
  ZnO(active)      -9.43      1.76   11.19  ZnO

**For a gas, SI = log10(fugacity). Fugacity = pressure * phi / 1 atm.
  For ideal gases, phi = 1.

------------------
End of simulation.
------------------

------------------------------------
Reading input data for simulation 5.
------------------------------------

	SOLUTION 3
	pH		3.4
	Cl		0.2		mol/kgw
	Na		0.2		mol/kgw
	Zn	0.200 	mmol/kgw
	Edta  0.200 	mmol/kgw
	END
-------------------------------------------
Beginning of initial solution calculations.
-------------------------------------------

Initial solution 3.	

-----------------------------Solution composition------------------------------

	Elements           Molality       Moles

	Cl                2.000e-01   2.000e-01
	Edta              2.000e-04   2.000e-04
	Na                2.000e-01   2.000e-01
	Zn                2.000e-04   2.000e-04

----------------------------Description of solution----------------------------

                                       pH  =   3.400    
                                       pe  =   4.000    
                        Activity of water  =   0.993
                 Ionic strength (mol/kgw)  =   2.007e-01
                       Mass of water (kg)  =   1.000e+00
                 Total alkalinity (eq/kg)  =  -2.785e-04
                         Temperature (°C)  =  25.00
                  Electrical balance (eq)  =   2.785e-04
 Percent error, 100*(Cat-|An|)/(Cat+|An|)  =   0.07
                               Iterations  =  10
                                  Total H  = 1.110143e+02
                                  Total O  = 5.550683e+01

----------------------------Distribution of species----------------------------

                                               Log       Log       Log    mole V
   Species          Molality    Activity  Molality  Activity     Gamma   cm³/mol

   H+              5.334e-04   3.981e-04    -3.273    -3.400    -0.127      0.00
   OH-             3.555e-11   2.512e-11   -10.449   -10.600    -0.151     (0)  
   H2O             5.551e+01   9.932e-01     1.744    -0.003     0.000     18.07
Cl            2.000e-01
   Cl-             2.000e-01   1.492e-01    -0.699    -0.826    -0.127     (0)  
   ZnCl+           8.403e-06   6.034e-06    -5.076    -5.219    -0.144     (0)  
   ZnCl2           1.427e-06   1.427e-06    -5.845    -5.845     0.000     (0)  
   ZnCl3-          2.356e-07   1.692e-07    -6.628    -6.772    -0.144     (0)  
   ZnCl4-2         4.245e-08   1.263e-08    -7.372    -7.899    -0.527     (0)  
   ZnOHCl          1.984e-10   1.984e-10    -9.702    -9.702     0.000     (0)  
Edta          2.000e-04
   Zn(Edta)-2      1.222e-04   3.791e-05    -3.913    -4.421    -0.508     (0)  
   H2(Edta)-2      5.485e-05   6.685e-06    -4.261    -5.175    -0.914     (0)  
   ZnH(Edta)-      1.577e-05   1.177e-05    -4.802    -4.929    -0.127     (0)  
   H3(Edta)-       5.924e-06   3.500e-06    -5.227    -5.456    -0.229     (0)  
   H(Edta)-3       1.020e-06   8.956e-09    -5.991    -8.048    -2.057     (0)  
   H4(Edta)        2.014e-07   2.014e-07    -6.696    -6.696     0.000     (0)  
   H5(Edta)+       4.292e-09   2.536e-09    -8.367    -8.596    -0.229     (0)  
   ZnOH(Edta)-3    4.805e-12   3.450e-13   -11.318   -12.462    -1.144     (0)  
   Na(Edta)-3      2.161e-12   1.897e-14   -11.665   -13.722    -2.057     (0)  
   Edta-4          2.739e-14   2.536e-16   -13.562   -15.596    -2.033     (0)  
H(0)          2.143e-18
   H2              1.071e-18   1.122e-18   -17.970   -17.950     0.020     (0)  
Na            2.000e-01
   Na+             2.000e-01   1.493e-01    -0.699    -0.826    -0.127     (0)  
   Na(Edta)-3      2.161e-12   1.897e-14   -11.665   -13.722    -2.057     (0)  
O(0)          0.000e+00
   O2              0.000e+00   0.000e+00   -56.421   -56.401     0.020     (0)  
Zn            2.000e-04
   Zn(Edta)-2      1.222e-04   3.791e-05    -3.913    -4.421    -0.508     (0)  
   Zn+2            5.189e-05   1.610e-05    -4.285    -4.793    -0.508     (0)  
   ZnH(Edta)-      1.577e-05   1.177e-05    -4.802    -4.929    -0.127     (0)  
   ZnCl+           8.403e-06   6.034e-06    -5.076    -5.219    -0.144     (0)  
   ZnCl2           1.427e-06   1.427e-06    -5.845    -5.845     0.000     (0)  
   ZnCl3-          2.356e-07   1.692e-07    -6.628    -6.772    -0.144     (0)  
   ZnCl4-2         4.245e-08   1.263e-08    -7.372    -7.899    -0.527     (0)  
   ZnOHCl          1.984e-10   1.984e-10    -9.702    -9.702     0.000     (0)  
   ZnOH+           6.843e-11   4.043e-11   -10.165   -10.393    -0.229     (0)  
   ZnOH(Edta)-3    4.805e-12   3.450e-13   -11.318   -12.462    -1.144     (0)  
   Zn(OH)2         1.610e-16   1.610e-16   -15.793   -15.793     0.000     (0)  
   Zn(OH)3-        3.430e-23   2.027e-23   -22.465   -22.693    -0.229     (0)  
   Zn(OH)4-2       1.663e-31   2.027e-32   -30.779   -31.693    -0.914     (0)  

------------------------------Saturation indices-------------------------------

  Phase               SI** log IAP   log K(298 K,   1 atm)

  Halite           -3.25     -1.65    1.60  NaCl
  O2(g)           -53.50     29.59   83.09  O2
  Zincite          -9.33      2.00   11.33  ZnO
  Zn(OH)2         -10.20      2.00   12.20  Zn(OH)2
  Zn(OH)2(am)     -10.47      2.00   12.47  Zn(OH)2
  Zn(OH)2(beta)    -9.75      2.00   11.75  Zn(OH)2
  Zn(OH)2(epsilon)  -9.53      2.00   11.53  Zn(OH)2
  Zn(OH)2(gamma)   -9.73      2.00   11.73  Zn(OH)2
  Zn2(OH)3Cl      -15.41     -0.22   15.19  Zn2(OH)3Cl
  Zn5(OH)8Cl2     -36.94      1.56   38.50  Zn5(OH)8Cl2
  ZnCl2           -13.50     -6.45    7.05  ZnCl2
  Znmetal         -38.58    -12.79   25.79  Zn
  ZnO(active)      -9.18      2.00   11.19  ZnO

**For a gas, SI = log10(fugacity). Fugacity = pressure * phi / 1 atm.
  For ideal gases, phi = 1.

------------------
End of simulation.
------------------

------------------------------------
Reading input data for simulation 6.
------------------------------------

	SOLUTION 4
	pH		3.6
	Cl		0.2		mol/kgw
	Na		0.2		mol/kgw
	Zn	0.200 	mmol/kgw
	Edta  0.200 	mmol/kgw
	END
-------------------------------------------
Beginning of initial solution calculations.
-------------------------------------------

Initial solution 4.	

-----------------------------Solution composition------------------------------

	Elements           Molality       Moles

	Cl                2.000e-01   2.000e-01
	Edta              2.000e-04   2.000e-04
	Na                2.000e-01   2.000e-01
	Zn                2.000e-04   2.000e-04

----------------------------Description of solution----------------------------

                                       pH  =   3.600    
                                       pe  =   4.000    
                        Activity of water  =   0.993
                 Ionic strength (mol/kgw)  =   2.006e-01
                       Mass of water (kg)  =   1.000e+00
                 Total alkalinity (eq/kg)  =  -3.434e-05
                         Temperature (°C)  =  25.00
                  Electrical balance (eq)  =   3.434e-05
 Percent error, 100*(Cat-|An|)/(Cat+|An|)  =   0.01
                               Iterations  =   9
                                  Total H  = 1.110141e+02
                                  Total O  = 5.550683e+01

----------------------------Distribution of species----------------------------

                                               Log       Log       Log    mole V
   Species          Molality    Activity  Molality  Activity     Gamma   cm³/mol

   H+              3.366e-04   2.512e-04    -3.473    -3.600    -0.127      0.00
   OH-             5.634e-11   3.981e-11   -10.249   -10.400    -0.151     (0)  
   H2O             5.551e+01   9.932e-01     1.744    -0.003     0.000     18.07
Cl            2.000e-01
   Cl-             2.000e-01   1.493e-01    -0.699    -0.826    -0.127     (0)  
   ZnCl+           5.712e-06   4.102e-06    -5.243    -5.387    -0.144     (0)  
   ZnCl2           9.704e-07   9.704e-07    -6.013    -6.013     0.000     (0)  
   ZnCl3-          1.602e-07   1.150e-07    -6.795    -6.939    -0.144     (0)  
   ZnCl4-2         2.886e-08   8.586e-09    -7.540    -8.066    -0.526     (0)  
   ZnOHCl          2.138e-10   2.138e-10    -9.670    -9.670     0.000     (0)  
Edta          2.000e-04
   Zn(Edta)-2      1.460e-04   4.529e-05    -3.836    -4.344    -0.508     (0)  
   H2(Edta)-2      3.834e-05   4.676e-06    -4.416    -5.330    -0.914     (0)  
   ZnH(Edta)-      1.189e-05   8.871e-06    -4.925    -5.052    -0.127     (0)  
   H3(Edta)-       2.614e-06   1.545e-06    -5.583    -5.811    -0.228     (0)  
   H(Edta)-3       1.129e-06   9.929e-09    -5.947    -8.003    -2.056     (0)  
   H4(Edta)        5.609e-08   5.609e-08    -7.251    -7.251     0.000     (0)  
   H5(Edta)+       7.539e-10   4.455e-10    -9.123    -9.351    -0.228     (0)  
   ZnOH(Edta)-3    9.093e-12   6.531e-13   -11.041   -12.185    -1.144     (0)  
   Na(Edta)-3      3.792e-12   3.333e-14   -11.421   -13.477    -2.056     (0)  
   Edta-4          4.810e-14   4.455e-16   -13.318   -15.351    -2.033     (0)  
H(0)          8.530e-19
   H2              4.265e-19   4.467e-19   -18.370   -18.350     0.020     (0)  
Na            2.000e-01
   Na+             2.000e-01   1.493e-01    -0.699    -0.826    -0.127     (0)  
   Na(Edta)-3      3.792e-12   3.333e-14   -11.421   -13.477    -2.056     (0)  
O(0)          0.000e+00
   O2              0.000e+00   0.000e+00   -55.621   -55.601     0.020     (0)  
Zn            2.000e-04
   Zn(Edta)-2      1.460e-04   4.529e-05    -3.836    -4.344    -0.508     (0)  
   Zn+2            3.527e-05   1.094e-05    -4.453    -4.961    -0.508     (0)  
   ZnH(Edta)-      1.189e-05   8.871e-06    -4.925    -5.052    -0.127     (0)  
   ZnCl+           5.712e-06   4.102e-06    -5.243    -5.387    -0.144     (0)  
   ZnCl2           9.704e-07   9.704e-07    -6.013    -6.013     0.000     (0)  
   ZnCl3-          1.602e-07   1.150e-07    -6.795    -6.939    -0.144     (0)  
   ZnCl4-2         2.886e-08   8.586e-09    -7.540    -8.066    -0.526     (0)  
   ZnOHCl          2.138e-10   2.138e-10    -9.670    -9.670     0.000     (0)  
   ZnOH+           7.371e-11   4.356e-11   -10.132   -10.361    -0.228     (0)  
   ZnOH(Edta)-3    9.093e-12   6.531e-13   -11.041   -12.185    -1.144     (0)  
   Zn(OH)2         2.749e-16   2.749e-16   -15.561   -15.561     0.000     (0)  
   Zn(OH)3-        9.281e-23   5.485e-23   -22.032   -22.261    -0.228     (0)  
   Zn(OH)4-2       7.128e-31   8.694e-32   -30.147   -31.061    -0.914     (0)  

------------------------------Saturation indices-------------------------------

  Phase               SI** log IAP   log K(298 K,   1 atm)

  Halite           -3.25     -1.65    1.60  NaCl
  O2(g)           -52.70     30.39   83.09  O2
  Zincite          -9.10      2.24   11.33  ZnO
  Zn(OH)2          -9.97      2.23   12.20  Zn(OH)2
  Zn(OH)2(am)     -10.24      2.23   12.47  Zn(OH)2
  Zn(OH)2(beta)    -9.52      2.23   11.75  Zn(OH)2
  Zn(OH)2(epsilon)  -9.30      2.23   11.53  Zn(OH)2
  Zn(OH)2(gamma)   -9.50      2.23   11.73  Zn(OH)2
  Zn2(OH)3Cl      -15.15      0.04   15.19  Zn2(OH)3Cl
  Zn5(OH)8Cl2     -36.18      2.32   38.50  Zn5(OH)8Cl2
  ZnCl2           -13.66     -6.61    7.05  ZnCl2
  Znmetal         -38.75    -12.96   25.79  Zn
  ZnO(active)      -8.95      2.24   11.19  ZnO

**For a gas, SI = log10(fugacity). Fugacity = pressure * phi / 1 atm.
  For ideal gases, phi = 1.

------------------
End of simulation.
------------------

------------------------------------
Reading input data for simulation 7.
------------------------------------

	SOLUTION 5
	pH		3.8
	Cl		0.2		mol/kgw
	Na		0.2		mol/kgw
	Zn	0.200 	mmol/kgw
	Edta  0.200 	mmol/kgw
	END
-------------------------------------------
Beginning of initial solution calculations.
-------------------------------------------

Initial solution 5.	

-----------------------------Solution composition------------------------------

	Elements           Molality       Moles

	Cl                2.000e-01   2.000e-01
	Edta              2.000e-04   2.000e-04
	Na                2.000e-01   2.000e-01
	Zn                2.000e-04   2.000e-04

----------------------------Description of solution----------------------------

                                       pH  =   3.800    
                                       pe  =   4.000    
                        Activity of water  =   0.993
                 Ionic strength (mol/kgw)  =   2.005e-01
                       Mass of water (kg)  =   1.000e+00
                 Total alkalinity (eq/kg)  =   1.232e-04
                         Temperature (°C)  =  25.00
                  Electrical balance (eq)  =  -1.232e-04
 Percent error, 100*(Cat-|An|)/(Cat+|An|)  =  -0.03
                               Iterations  =  10
                                  Total H  = 1.110139e+02
                                  Total O  = 5.550683e+01

----------------------------Distribution of species----------------------------

                                               Log       Log       Log    mole V
   Species          Molality    Activity  Molality  Activity     Gamma   cm³/mol

   H+              2.124e-04   1.585e-04    -3.673    -3.800    -0.127      0.00
   OH-             8.929e-11   6.310e-11   -10.049   -10.200    -0.151     (0)  
   H2O             5.551e+01   9.932e-01     1.744    -0.003     0.000     18.07
Cl            2.000e-01
   Cl-             2.000e-01   1.493e-01    -0.699    -0.826    -0.127     (0)  
   ZnCl+           3.799e-06   2.729e-06    -5.420    -5.564    -0.144     (0)  
   ZnCl2           6.455e-07   6.455e-07    -6.190    -6.190     0.000     (0)  
   ZnCl3-          1.066e-07   7.653e-08    -6.972    -7.116    -0.144     (0)  
   ZnCl4-2         1.919e-08   5.712e-09    -7.717    -8.243    -0.526     (0)  
   ZnOHCl          2.254e-10   2.254e-10    -9.647    -9.647     0.000     (0)  
Edta          2.000e-04
   Zn(Edta)-2      1.636e-04   5.075e-05    -3.786    -4.295    -0.508     (0)  
   H2(Edta)-2      2.571e-05   3.136e-06    -4.590    -5.504    -0.914     (0)  
   ZnH(Edta)-      8.404e-06   6.272e-06    -5.076    -5.203    -0.127     (0)  
   H(Edta)-3       1.200e-06   1.055e-08    -5.921    -7.977    -2.056     (0)  
   H3(Edta)-       1.106e-06   6.538e-07    -5.956    -6.185    -0.228     (0)  
   H4(Edta)        1.498e-08   1.498e-08    -7.825    -7.825     0.000     (0)  
   H5(Edta)+       1.270e-10   7.507e-11    -9.896   -10.125    -0.228     (0)  
   ZnOH(Edta)-3    1.615e-11   1.160e-12   -10.792   -11.936    -1.144     (0)  
   Na(Edta)-3      6.382e-12   5.616e-14   -11.195   -13.251    -2.056     (0)  
   Edta-4          8.101e-14   7.507e-16   -13.091   -15.125    -2.033     (0)  
H(0)          3.396e-19
   H2              1.698e-19   1.778e-19   -18.770   -18.750     0.020     (0)  
Na            2.000e-01
   Na+             2.000e-01   1.493e-01    -0.699    -0.826    -0.127     (0)  
   Na(Edta)-3      6.382e-12   5.616e-14   -11.195   -13.251    -2.056     (0)  
O(0)          0.000e+00
   O2              0.000e+00   0.000e+00   -54.821   -54.801     0.020     (0)  
Zn            2.000e-04
   Zn(Edta)-2      1.636e-04   5.075e-05    -3.786    -4.295    -0.508     (0)  
   Zn+2            2.346e-05   7.277e-06    -4.630    -5.138    -0.508     (0)  
   ZnH(Edta)-      8.404e-06   6.272e-06    -5.076    -5.203    -0.127     (0)  
   ZnCl+           3.799e-06   2.729e-06    -5.420    -5.564    -0.144     (0)  
   ZnCl2           6.455e-07   6.455e-07    -6.190    -6.190     0.000     (0)  
   ZnCl3-          1.066e-07   7.653e-08    -6.972    -7.116    -0.144     (0)  
   ZnCl4-2         1.919e-08   5.712e-09    -7.717    -8.243    -0.526     (0)  
   ZnOHCl          2.254e-10   2.254e-10    -9.647    -9.647     0.000     (0)  
   ZnOH+           7.770e-11   4.592e-11   -10.110   -10.338    -0.228     (0)  
   ZnOH(Edta)-3    1.615e-11   1.160e-12   -10.792   -11.936    -1.144     (0)  
   Zn(OH)2         4.592e-16   4.592e-16   -15.338   -15.338     0.000     (0)  
   Zn(OH)3-        2.457e-22   1.452e-22   -21.610   -21.838    -0.228     (0)  
   Zn(OH)4-2       2.990e-30   3.648e-31   -29.524   -30.438    -0.914     (0)  

------------------------------Saturation indices-------------------------------

  Phase               SI** log IAP   log K(298 K,   1 atm)

  Halite           -3.25     -1.65    1.60  NaCl
  O2(g)           -51.90     31.19   83.09  O2
  Zincite          -8.87      2.46   11.33  ZnO
  Zn(OH)2          -9.74      2.46   12.20  Zn(OH)2
  Zn(OH)2(am)     -10.02      2.46   12.47  Zn(OH)2
  Zn(OH)2(beta)    -9.30      2.46   11.75  Zn(OH)2
  Zn(OH)2(epsilon)  -9.08      2.46   11.53  Zn(OH)2
  Zn(OH)2(gamma)   -9.28      2.46   11.73  Zn(OH)2
  Zn2(OH)3Cl      -14.90      0.29   15.19  Zn2(OH)3Cl
  Zn5(OH)8Cl2     -35.47      3.03   38.50  Zn5(OH)8Cl2
  ZnCl2           -13.84     -6.79    7.05  ZnCl2
  Znmetal         -38.93    -13.14   25.79  Zn
  ZnO(active)      -8.73      2.46   11.19  ZnO

**For a gas, SI = log10(fugacity). Fugacity = pressure * phi / 1 atm.
  For ideal gases, phi = 1.

------------------
End of simulation.
------------------

------------------------------------
Reading input data for simulation 8.
------------------------------------

	SOLUTION 6
	pH		4.0
	Cl		0.2		mol/kgw
	Na		0.2		mol/kgw
	Zn	0.200 	mmol/kgw
	Edta  0.200 	mmol/kgw
	END
-------------------------------------------
Beginning of initial solution calculations.
-------------------------------------------

Initial solution 6.	

-----------------------------Solution composition------------------------------

	Elements           Molality       Moles

	Cl                2.000e-01   2.000e-01
	Edta              2.000e-04   2.000e-04
	Na                2.000e-01   2.000e-01
	Zn                2.000e-04   2.000e-04

----------------------------Description of solution----------------------------

                                       pH  =   4.000    
                                       pe  =   4.000    
                        Activity of water  =   0.993
                 Ionic strength (mol/kgw)  =   2.005e-01
                       Mass of water (kg)  =   1.000e+00
                 Total alkalinity (eq/kg)  =   2.242e-04
                         Temperature (°C)  =  25.00
                  Electrical balance (eq)  =  -2.242e-04
 Percent error, 100*(Cat-|An|)/(Cat+|An|)  =  -0.06
                               Iterations  =  10
                                  Total H  = 1.110138e+02
                                  Total O  = 5.550683e+01

----------------------------Distribution of species----------------------------

                                               Log       Log       Log    mole V
   Species          Molality    Activity  Molality  Activity     Gamma   cm³/mol

   H+              1.340e-04   1.000e-04    -3.873    -4.000    -0.127      0.00
   OH-             1.415e-10   1.000e-10    -9.849   -10.000    -0.151     (0)  
   H2O             5.551e+01   9.932e-01     1.744    -0.003     0.000     18.07
Cl            2.000e-01
   Cl-             2.000e-01   1.493e-01    -0.699    -0.826    -0.127     (0)  
   ZnCl+           2.498e-06   1.794e-06    -5.602    -5.746    -0.144     (0)  
   ZnCl2           4.244e-07   4.244e-07    -6.372    -6.372     0.000     (0)  
   ZnCl3-          7.007e-08   5.032e-08    -7.154    -7.298    -0.144     (0)  
   ZnCl4-2         1.262e-08   3.756e-09    -7.899    -8.425    -0.526     (0)  
   ZnOHCl          2.349e-10   2.349e-10    -9.629    -9.629     0.000     (0)  
Edta          2.000e-04
   Zn(Edta)-2      1.759e-04   5.457e-05    -3.755    -4.263    -0.508     (0)  
   H2(Edta)-2      1.673e-05   2.042e-06    -4.776    -5.690    -0.913     (0)  
   ZnH(Edta)-      5.702e-06   4.255e-06    -5.244    -5.371    -0.127     (0)  
   H(Edta)-3       1.237e-06   1.089e-08    -5.908    -7.963    -2.055     (0)  
   H3(Edta)-       4.544e-07   2.686e-07    -6.343    -6.571    -0.228     (0)  
   H4(Edta)        3.882e-09   3.882e-09    -8.411    -8.411     0.000     (0)  
   ZnOH(Edta)-3    2.751e-11   1.977e-12   -10.560   -11.704    -1.144     (0)  
   H5(Edta)+       2.077e-11   1.228e-11   -10.683   -10.911    -0.228     (0)  
   Na(Edta)-3      1.043e-11   9.184e-14   -10.982   -13.037    -2.055     (0)  
   Edta-4          1.325e-13   1.228e-15   -12.878   -14.911    -2.033     (0)  
H(0)          1.352e-19
   H2              6.760e-20   7.079e-20   -19.170   -19.150     0.020     (0)  
Na            2.000e-01
   Na+             2.000e-01   1.493e-01    -0.699    -0.826    -0.127     (0)  
   Na(Edta)-3      1.043e-11   9.184e-14   -10.982   -13.037    -2.055     (0)  
O(0)          0.000e+00
   O2              0.000e+00   0.000e+00   -54.021   -54.001     0.020     (0)  
Zn            2.000e-04
   Zn(Edta)-2      1.759e-04   5.457e-05    -3.755    -4.263    -0.508     (0)  
   Zn+2            1.542e-05   4.785e-06    -4.812    -5.320    -0.508     (0)  
   ZnH(Edta)-      5.702e-06   4.255e-06    -5.244    -5.371    -0.127     (0)  
   ZnCl+           2.498e-06   1.794e-06    -5.602    -5.746    -0.144     (0)  
   ZnCl2           4.244e-07   4.244e-07    -6.372    -6.372     0.000     (0)  
   ZnCl3-          7.007e-08   5.032e-08    -7.154    -7.298    -0.144     (0)  
   ZnCl4-2         1.262e-08   3.756e-09    -7.899    -8.425    -0.526     (0)  
   ZnOHCl          2.349e-10   2.349e-10    -9.629    -9.629     0.000     (0)  
   ZnOH+           8.096e-11   4.785e-11   -10.092   -10.320    -0.228     (0)  
   ZnOH(Edta)-3    2.751e-11   1.977e-12   -10.560   -11.704    -1.144     (0)  
   Zn(OH)2         7.585e-16   7.585e-16   -15.120   -15.120     0.000     (0)  
   Zn(OH)3-        6.432e-22   3.802e-22   -21.192   -21.420    -0.228     (0)  
   Zn(OH)4-2       1.240e-29   1.514e-30   -28.907   -29.820    -0.913     (0)  

------------------------------Saturation indices-------------------------------

  Phase               SI** log IAP   log K(298 K,   1 atm)

  Halite           -3.25     -1.65    1.60  NaCl
  O2(g)           -51.10     31.99   83.09  O2
  Zincite          -8.66      2.68   11.33  ZnO
  Zn(OH)2          -9.53      2.67   12.20  Zn(OH)2
  Zn(OH)2(am)      -9.80      2.67   12.47  Zn(OH)2
  Zn(OH)2(beta)    -9.08      2.67   11.75  Zn(OH)2
  Zn(OH)2(epsilon)  -8.86      2.67   11.53  Zn(OH)2
  Zn(OH)2(gamma)   -9.06      2.67   11.73  Zn(OH)2
  Zn2(OH)3Cl      -14.67      0.52   15.19  Zn2(OH)3Cl
  Zn5(OH)8Cl2     -34.78      3.72   38.50  Zn5(OH)8Cl2
  ZnCl2           -14.02     -6.97    7.05  ZnCl2
  Znmetal         -39.11    -13.32   25.79  Zn
  ZnO(active)      -8.51      2.68   11.19  ZnO

**For a gas, SI = log10(fugacity). Fugacity = pressure * phi / 1 atm.
  For ideal gases, phi = 1.

------------------
End of simulation.
------------------

------------------------------------
Reading input data for simulation 9.
------------------------------------

	SOLUTION 7
	pH		4.2
	Cl		0.2		mol/kgw
	Na		0.2		mol/kgw
	Zn	0.200 	mmol/kgw
	Edta  0.200 	mmol/kgw
	END
-------------------------------------------
Beginning of initial solution calculations.
-------------------------------------------

Initial solution 7.	

-----------------------------Solution composition------------------------------

	Elements           Molality       Moles

	Cl                2.000e-01   2.000e-01
	Edta              2.000e-04   2.000e-04
	Na                2.000e-01   2.000e-01
	Zn                2.000e-04   2.000e-04

----------------------------Description of solution----------------------------

                                       pH  =   4.200    
                                       pe  =   4.000    
                        Activity of water  =   0.993
                 Ionic strength (mol/kgw)  =   2.005e-01
                       Mass of water (kg)  =   1.000e+00
                 Total alkalinity (eq/kg)  =   2.886e-04
                         Temperature (°C)  =  25.00
                  Electrical balance (eq)  =  -2.886e-04
 Percent error, 100*(Cat-|An|)/(Cat+|An|)  =  -0.07
                               Iterations  =  10
                                  Total H  = 1.110138e+02
                                  Total O  = 5.550683e+01

----------------------------Distribution of species----------------------------

                                               Log       Log       Log    mole V
   Species          Molality    Activity  Molality  Activity     Gamma   cm³/mol

   H+              8.454e-05   6.310e-05    -4.073    -4.200    -0.127      0.00
   OH-             2.243e-10   1.585e-10    -9.649    -9.800    -0.151     (0)  
   H2O             5.551e+01   9.932e-01     1.744    -0.003     0.000     18.07
Cl            2.000e-01
   Cl-             2.000e-01   1.493e-01    -0.699    -0.826    -0.127     (0)  
   ZnCl+           1.637e-06   1.176e-06    -5.786    -5.930    -0.144     (0)  
   ZnCl2           2.781e-07   2.781e-07    -6.556    -6.556     0.000     (0)  
   ZnCl3-          4.591e-08   3.297e-08    -7.338    -7.482    -0.144     (0)  
   ZnCl4-2         8.270e-09   2.461e-09    -8.083    -8.609    -0.526     (0)  
   ZnOHCl          2.439e-10   2.439e-10    -9.613    -9.613     0.000     (0)  
Edta          2.000e-04
   Zn(Edta)-2      1.842e-04   5.714e-05    -3.735    -4.243    -0.508     (0)  
   H2(Edta)-2      1.064e-05   1.299e-06    -4.973    -5.886    -0.913     (0)  
   ZnH(Edta)-      3.767e-06   2.812e-06    -5.424    -5.551    -0.127     (0)  
   H(Edta)-3       1.247e-06   1.098e-08    -5.904    -7.959    -2.055     (0)  
   H3(Edta)-       1.824e-07   1.078e-07    -6.739    -6.967    -0.228     (0)  
   H4(Edta)        9.833e-10   9.833e-10    -9.007    -9.007     0.000     (0)  
   ZnOH(Edta)-3    4.566e-11   3.281e-12   -10.340   -11.484    -1.144     (0)  
   Na(Edta)-3      1.667e-11   1.468e-13   -10.778   -12.833    -2.055     (0)  
   H5(Edta)+       3.319e-12   1.962e-12   -11.479   -11.707    -0.228     (0)  
   Edta-4          2.117e-13   1.962e-15   -12.674   -14.707    -2.033     (0)  
H(0)          5.383e-20
   H2              2.691e-20   2.818e-20   -19.570   -19.550     0.020     (0)  
Na            2.000e-01
   Na+             2.000e-01   1.493e-01    -0.699    -0.826    -0.127     (0)  
   Na(Edta)-3      1.667e-11   1.468e-13   -10.778   -12.833    -2.055     (0)  
O(0)          0.000e+00
   O2              0.000e+00   0.000e+00   -53.221   -53.201     0.020     (0)  
Zn            2.000e-04
   Zn(Edta)-2      1.842e-04   5.714e-05    -3.735    -4.243    -0.508     (0)  
   Zn+2            1.010e-05   3.135e-06    -4.995    -5.504    -0.508     (0)  
   ZnH(Edta)-      3.767e-06   2.812e-06    -5.424    -5.551    -0.127     (0)  
   ZnCl+           1.637e-06   1.176e-06    -5.786    -5.930    -0.144     (0)  
   ZnCl2           2.781e-07   2.781e-07    -6.556    -6.556     0.000     (0)  
   ZnCl3-          4.591e-08   3.297e-08    -7.338    -7.482    -0.144     (0)  
   ZnCl4-2         8.270e-09   2.461e-09    -8.083    -8.609    -0.526     (0)  
   ZnOHCl          2.439e-10   2.439e-10    -9.613    -9.613     0.000     (0)  
   ZnOH+           8.407e-11   4.969e-11   -10.075   -10.304    -0.228     (0)  
   ZnOH(Edta)-3    4.566e-11   3.281e-12   -10.340   -11.484    -1.144     (0)  
   Zn(OH)2         1.248e-15   1.248e-15   -14.904   -14.904     0.000     (0)  
   Zn(OH)3-        1.678e-21   9.917e-22   -20.775   -21.004    -0.228     (0)  
   Zn(OH)4-2       5.126e-29   6.258e-30   -28.290   -29.204    -0.913     (0)  

------------------------------Saturation indices-------------------------------

  Phase               SI** log IAP   log K(298 K,   1 atm)

  Halite           -3.25     -1.65    1.60  NaCl
  O2(g)           -50.30     32.79   83.09  O2
  Zincite          -8.44      2.89   11.33  ZnO
  Zn(OH)2          -9.31      2.89   12.20  Zn(OH)2
  Zn(OH)2(am)      -9.58      2.89   12.47  Zn(OH)2
  Zn(OH)2(beta)    -8.86      2.89   11.75  Zn(OH)2
  Zn(OH)2(epsilon)  -8.64      2.89   11.53  Zn(OH)2
  Zn(OH)2(gamma)   -8.84      2.89   11.73  Zn(OH)2
  Zn2(OH)3Cl      -14.43      0.76   15.19  Zn2(OH)3Cl
  Zn5(OH)8Cl2     -34.09      4.41   38.50  Zn5(OH)8Cl2
  ZnCl2           -14.21     -7.16    7.05  ZnCl2
  Znmetal         -39.29    -13.50   25.79  Zn
  ZnO(active)      -8.30      2.89   11.19  ZnO

**For a gas, SI = log10(fugacity). Fugacity = pressure * phi / 1 atm.
  For ideal gases, phi = 1.

------------------
End of simulation.
------------------

-------------------------------------
Reading input data for simulation 10.
-------------------------------------

	SOLUTION 8
	pH		4.4
	Cl		0.2		mol/kgw
	Na		0.2		mol/kgw
	Zn	0.200 	mmol/kgw
	Edta  0.200 	mmol/kgw
	END
-------------------------------------------
Beginning of initial solution calculations.
-------------------------------------------

Initial solution 8.	

-----------------------------Solution composition------------------------------

	Elements           Molality       Moles

	Cl                2.000e-01   2.000e-01
	Edta              2.000e-04   2.000e-04
	Na                2.000e-01   2.000e-01
	Zn                2.000e-04   2.000e-04

----------------------------Description of solution----------------------------

                                       pH  =   4.400    
                                       pe  =   4.000    
                        Activity of water  =   0.993
                 Ionic strength (mol/kgw)  =   2.004e-01
                       Mass of water (kg)  =   1.000e+00
                 Total alkalinity (eq/kg)  =   3.295e-04
                         Temperature (°C)  =  25.00
                  Electrical balance (eq)  =  -3.295e-04
 Percent error, 100*(Cat-|An|)/(Cat+|An|)  =  -0.08
                               Iterations  =   9
                                  Total H  = 1.110137e+02
                                  Total O  = 5.550683e+01

----------------------------Distribution of species----------------------------

                                               Log       Log       Log    mole V
   Species          Molality    Activity  Molality  Activity     Gamma   cm³/mol

   H+              5.334e-05   3.981e-05    -4.273    -4.400    -0.127      0.00
   OH-             3.555e-10   2.512e-10    -9.449    -9.600    -0.151     (0)  
   H2O             5.551e+01   9.932e-01     1.744    -0.003     0.000     18.07
Cl            2.000e-01
   Cl-             2.000e-01   1.493e-01    -0.699    -0.826    -0.127     (0)  
   ZnCl+           1.076e-06   7.729e-07    -5.968    -6.112    -0.144     (0)  
   ZnCl2           1.829e-07   1.829e-07    -6.738    -6.738     0.000     (0)  
   ZnCl3-          3.019e-08   2.168e-08    -7.520    -7.664    -0.144     (0)  
   ZnCl4-2         5.437e-09   1.618e-09    -8.265    -8.791    -0.526     (0)  
   ZnOHCl          2.542e-10   2.542e-10    -9.595    -9.595     0.000     (0)  
Edta          2.000e-04
   Zn(Edta)-2      1.896e-04   5.884e-05    -3.722    -4.230    -0.508     (0)  
   H2(Edta)-2      6.635e-06   8.100e-07    -5.178    -6.092    -0.913     (0)  
   ZnH(Edta)-      2.447e-06   1.827e-06    -5.611    -5.738    -0.127     (0)  
   H(Edta)-3       1.232e-06   1.085e-08    -5.909    -7.965    -2.055     (0)  
   H3(Edta)-       7.175e-08   4.241e-08    -7.144    -7.373    -0.228     (0)  
   H4(Edta)        2.440e-10   2.440e-10    -9.613    -9.613     0.000     (0)  
   ZnOH(Edta)-3    7.451e-11   5.354e-12   -10.128   -11.271    -1.144     (0)  
   Na(Edta)-3      2.609e-11   2.298e-13   -10.583   -12.639    -2.055     (0)  
   H5(Edta)+       5.198e-13   3.072e-13   -12.284   -12.513    -0.228     (0)  
   Edta-4          3.314e-13   3.072e-15   -12.480   -14.513    -2.033     (0)  
H(0)          2.143e-20
   H2              1.071e-20   1.122e-20   -19.970   -19.950     0.020     (0)  
Na            2.000e-01
   Na+             2.000e-01   1.493e-01    -0.699    -0.826    -0.127     (0)  
   Na(Edta)-3      2.609e-11   2.298e-13   -10.583   -12.639    -2.055     (0)  
O(0)          0.000e+00
   O2              0.000e+00   0.000e+00   -52.421   -52.401     0.020     (0)  
Zn            2.000e-04
   Zn(Edta)-2      1.896e-04   5.884e-05    -3.722    -4.230    -0.508     (0)  
   Zn+2            6.644e-06   2.061e-06    -5.178    -5.686    -0.508     (0)  
   ZnH(Edta)-      2.447e-06   1.827e-06    -5.611    -5.738    -0.127     (0)  
   ZnCl+           1.076e-06   7.729e-07    -5.968    -6.112    -0.144     (0)  
   ZnCl2           1.829e-07   1.829e-07    -6.738    -6.738     0.000     (0)  
   ZnCl3-          3.019e-08   2.168e-08    -7.520    -7.664    -0.144     (0)  
   ZnCl4-2         5.437e-09   1.618e-09    -8.265    -8.791    -0.526     (0)  
   ZnOHCl          2.542e-10   2.542e-10    -9.595    -9.595     0.000     (0)  
   ZnOH+           8.761e-11   5.179e-11   -10.057   -10.286    -0.228     (0)  
   ZnOH(Edta)-3    7.451e-11   5.354e-12   -10.128   -11.271    -1.144     (0)  
   Zn(OH)2         2.062e-15   2.062e-15   -14.686   -14.686     0.000     (0)  
   Zn(OH)3-        4.392e-21   2.596e-21   -20.357   -20.586    -0.228     (0)  
   Zn(OH)4-2       2.127e-28   2.596e-29   -27.672   -28.586    -0.913     (0)  

------------------------------Saturation indices-------------------------------

  Phase               SI** log IAP   log K(298 K,   1 atm)

  Halite           -3.25     -1.65    1.60  NaCl
  O2(g)           -49.50     33.59   83.09  O2
  Zincite          -8.22      3.11   11.33  ZnO
  Zn(OH)2          -9.09      3.11   12.20  Zn(OH)2
  Zn(OH)2(am)      -9.37      3.11   12.47  Zn(OH)2
  Zn(OH)2(beta)    -8.65      3.11   11.75  Zn(OH)2
  Zn(OH)2(epsilon)  -8.43      3.11   11.53  Zn(OH)2
  Zn(OH)2(gamma)   -8.63      3.11   11.73  Zn(OH)2
  Zn2(OH)3Cl      -14.20      0.99   15.19  Zn2(OH)3Cl
  Zn5(OH)8Cl2     -33.40      5.10   38.50  Zn5(OH)8Cl2
  ZnCl2           -14.39     -7.34    7.05  ZnCl2
  Znmetal         -39.47    -13.69   25.79  Zn
  ZnO(active)      -8.08      3.11   11.19  ZnO

**For a gas, SI = log10(fugacity). Fugacity = pressure * phi / 1 atm.
  For ideal gases, phi = 1.

------------------
End of simulation.
------------------

-------------------------------------
Reading input data for simulation 11.
-------------------------------------

	SOLUTION 9
	pH		4.6
	Cl		0.2		mol/kgw
	Na		0.2		mol/kgw
	Zn	0.200 	mmol/kgw
	Edta  0.200 	mmol/kgw
	END
-------------------------------------------
Beginning of initial solution calculations.
-------------------------------------------

Initial solution 9.	

-----------------------------Solution composition------------------------------

	Elements           Molality       Moles

	Cl                2.000e-01   2.000e-01
	Edta              2.000e-04   2.000e-04
	Na                2.000e-01   2.000e-01
	Zn                2.000e-04   2.000e-04

----------------------------Description of solution----------------------------

                                       pH  =   4.600    
                                       pe  =   4.000    
                        Activity of water  =   0.993
                 Ionic strength (mol/kgw)  =   2.004e-01
                       Mass of water (kg)  =   1.000e+00
                 Total alkalinity (eq/kg)  =   3.554e-04
                         Temperature (°C)  =  25.00
                  Electrical balance (eq)  =  -3.554e-04
 Percent error, 100*(Cat-|An|)/(Cat+|An|)  =  -0.09
                               Iterations  =   8
                                  Total H  = 1.110137e+02
                                  Total O  = 5.550683e+01

----------------------------Distribution of species----------------------------

                                               Log       Log       Log    mole V
   Species          Molality    Activity  Molality  Activity     Gamma   cm³/mol

   H+              3.366e-05   2.512e-05    -4.473    -4.600    -0.127      0.00
   OH-             5.633e-10   3.981e-10    -9.249    -9.400    -0.151     (0)  
   H2O             5.551e+01   9.932e-01     1.744    -0.003     0.000     18.07
Cl            2.000e-01
   Cl-             2.000e-01   1.493e-01    -0.699    -0.826    -0.127     (0)  
   ZnCl+           7.147e-07   5.133e-07    -6.146    -6.290    -0.144     (0)  
   ZnCl2           1.214e-07   1.214e-07    -6.916    -6.916     0.000     (0)  
   ZnCl3-          2.005e-08   1.440e-08    -7.698    -7.842    -0.144     (0)  
   ZnCl4-2         3.611e-09   1.075e-09    -8.442    -8.969    -0.526     (0)  
   ZnOHCl          2.675e-10   2.675e-10    -9.573    -9.573     0.000     (0)  
Edta          2.000e-04
   Zn(Edta)-2      1.932e-04   5.994e-05    -3.714    -4.222    -0.508     (0)  
   H2(Edta)-2      4.052e-06   4.947e-07    -5.392    -6.306    -0.913     (0)  
   ZnH(Edta)-      1.573e-06   1.174e-06    -5.803    -5.930    -0.127     (0)  
   H(Edta)-3       1.192e-06   1.050e-08    -5.924    -7.979    -2.055     (0)  
   H3(Edta)-       2.765e-08   1.634e-08    -7.558    -7.787    -0.228     (0)  
   ZnOH(Edta)-3    1.203e-10   8.644e-12    -9.920   -11.063    -1.143     (0)  
   H4(Edta)        5.934e-11   5.934e-11   -10.227   -10.227     0.000     (0)  
   Na(Edta)-3      4.002e-11   3.526e-13   -10.398   -12.453    -2.055     (0)  
   Edta-4          5.084e-13   4.713e-15   -12.294   -14.327    -2.033     (0)  
   H5(Edta)+       7.974e-14   4.713e-14   -13.098   -13.327    -0.228     (0)  
H(0)          8.531e-21
   H2              4.265e-21   4.467e-21   -20.370   -20.350     0.020     (0)  
Na            2.000e-01
   Na+             2.000e-01   1.493e-01    -0.699    -0.826    -0.127     (0)  
   Na(Edta)-3      4.002e-11   3.526e-13   -10.398   -12.453    -2.055     (0)  
O(0)          0.000e+00
   O2              0.000e+00   0.000e+00   -51.621   -51.601     0.020     (0)  
Zn            2.000e-04
   Zn(Edta)-2      1.932e-04   5.994e-05    -3.714    -4.222    -0.508     (0)  
   Zn+2            4.412e-06   1.369e-06    -5.355    -5.864    -0.508     (0)  
   ZnH(Edta)-      1.573e-06   1.174e-06    -5.803    -5.930    -0.127     (0)  
   ZnCl+           7.147e-07   5.133e-07    -6.146    -6.290    -0.144     (0)  
   ZnCl2           1.214e-07   1.214e-07    -6.916    -6.916     0.000     (0)  
   ZnCl3-          2.005e-08   1.440e-08    -7.698    -7.842    -0.144     (0)  
   ZnCl4-2         3.611e-09   1.075e-09    -8.442    -8.969    -0.526     (0)  
   ZnOHCl          2.675e-10   2.675e-10    -9.573    -9.573     0.000     (0)  
   ZnOH(Edta)-3    1.203e-10   8.644e-12    -9.920   -11.063    -1.143     (0)  
   ZnOH+           9.220e-11   5.450e-11   -10.035   -10.264    -0.228     (0)  
   Zn(OH)2         3.439e-15   3.439e-15   -14.464   -14.464     0.000     (0)  
   Zn(OH)3-        1.161e-20   6.862e-21   -19.935   -20.164    -0.228     (0)  
   Zn(OH)4-2       8.909e-28   1.088e-28   -27.050   -27.963    -0.913     (0)  

------------------------------Saturation indices-------------------------------

  Phase               SI** log IAP   log K(298 K,   1 atm)

  Halite           -3.25     -1.65    1.60  NaCl
  O2(g)           -48.70     34.39   83.09  O2
  Zincite          -8.00      3.33   11.33  ZnO
  Zn(OH)2          -8.87      3.33   12.20  Zn(OH)2
  Zn(OH)2(am)      -9.14      3.33   12.47  Zn(OH)2
  Zn(OH)2(beta)    -8.42      3.33   11.75  Zn(OH)2
  Zn(OH)2(epsilon)  -8.20      3.33   11.53  Zn(OH)2
  Zn(OH)2(gamma)   -8.40      3.33   11.73  Zn(OH)2
  Zn2(OH)3Cl      -13.95      1.24   15.19  Zn2(OH)3Cl
  Zn5(OH)8Cl2     -32.69      5.81   38.50  Zn5(OH)8Cl2
  ZnCl2           -14.57     -7.52    7.05  ZnCl2
  Znmetal         -39.65    -13.86   25.79  Zn
  ZnO(active)      -7.85      3.33   11.19  ZnO

**For a gas, SI = log10(fugacity). Fugacity = pressure * phi / 1 atm.
  For ideal gases, phi = 1.

------------------
End of simulation.
------------------

-------------------------------------
Reading input data for simulation 12.
-------------------------------------

	SOLUTION 10
	pH		4.8
	Cl		0.2		mol/kgw
	Na		0.2		mol/kgw
	Zn	0.200 	mmol/kgw
	Edta  0.200 	mmol/kgw
	END
-------------------------------------------
Beginning of initial solution calculations.
-------------------------------------------

Initial solution 10.	

-----------------------------Solution composition------------------------------

	Elements           Molality       Moles

	Cl                2.000e-01   2.000e-01
	Edta              2.000e-04   2.000e-04
	Na                2.000e-01   2.000e-01
	Zn                2.000e-04   2.000e-04

----------------------------Description of solution----------------------------

                                       pH  =   4.800    
                                       pe  =   4.000    
                        Activity of water  =   0.993
                 Ionic strength (mol/kgw)  =   2.004e-01
                       Mass of water (kg)  =   1.000e+00
                 Total alkalinity (eq/kg)  =   3.718e-04
                         Temperature (°C)  =  25.00
                  Electrical balance (eq)  =  -3.718e-04
 Percent error, 100*(Cat-|An|)/(Cat+|An|)  =  -0.09
                               Iterations  =   8
                                  Total H  = 1.110137e+02
                                  Total O  = 5.550683e+01

----------------------------Distribution of species----------------------------

                                               Log       Log       Log    mole V
   Species          Molality    Activity  Molality  Activity     Gamma   cm³/mol

   H+              2.124e-05   1.585e-05    -4.673    -4.800    -0.127      0.00
   OH-             8.928e-10   6.310e-10    -9.049    -9.200    -0.151     (0)  
   H2O             5.551e+01   9.932e-01     1.744    -0.003     0.000     18.07
Cl            2.000e-01
   Cl-             2.000e-01   1.493e-01    -0.699    -0.826    -0.127     (0)  
   ZnCl+           4.822e-07   3.463e-07    -6.317    -6.461    -0.144     (0)  
   ZnCl2           8.193e-08   8.193e-08    -7.087    -7.087     0.000     (0)  
   ZnCl3-          1.353e-08   9.715e-09    -7.869    -8.013    -0.144     (0)  
   ZnCl4-2         2.436e-09   7.251e-10    -8.613    -9.140    -0.526     (0)  
   ZnOHCl          2.861e-10   2.861e-10    -9.543    -9.543     0.000     (0)  
Edta          2.000e-04
   Zn(Edta)-2      1.954e-04   6.064e-05    -3.709    -4.217    -0.508     (0)  
   H2(Edta)-2      2.419e-06   2.953e-07    -5.616    -6.530    -0.913     (0)  
   H(Edta)-3       1.128e-06   9.938e-09    -5.948    -8.003    -2.055     (0)  
   ZnH(Edta)-      1.004e-06   7.495e-07    -5.998    -6.125    -0.127     (0)  
   H3(Edta)-       1.041e-08   6.156e-09    -7.982    -8.211    -0.228     (0)  
   ZnOH(Edta)-3    1.929e-10   1.386e-11    -9.715   -10.858    -1.143     (0)  
   Na(Edta)-3      6.001e-11   5.288e-13   -10.222   -12.277    -2.055     (0)  
   H4(Edta)        1.410e-11   1.410e-11   -10.851   -10.851     0.000     (0)  
   Edta-4          7.624e-13   7.068e-15   -12.118   -14.151    -2.033     (0)  
   H5(Edta)+       1.196e-14   7.068e-15   -13.922   -14.151    -0.228     (0)  
H(0)          3.396e-21
   H2              1.698e-21   1.778e-21   -20.770   -20.750     0.020     (0)  
Na            2.000e-01
   Na+             2.000e-01   1.493e-01    -0.699    -0.826    -0.127     (0)  
   Na(Edta)-3      6.001e-11   5.288e-13   -10.222   -12.277    -2.055     (0)  
O(0)          0.000e+00
   O2              0.000e+00   0.000e+00   -50.821   -50.801     0.020     (0)  
Zn            2.000e-04
   Zn(Edta)-2      1.954e-04   6.064e-05    -3.709    -4.217    -0.508     (0)  
   Zn+2            2.977e-06   9.236e-07    -5.526    -6.034    -0.508     (0)  
   ZnH(Edta)-      1.004e-06   7.495e-07    -5.998    -6.125    -0.127     (0)  
   ZnCl+           4.822e-07   3.463e-07    -6.317    -6.461    -0.144     (0)  
   ZnCl2           8.193e-08   8.193e-08    -7.087    -7.087     0.000     (0)  
   ZnCl3-          1.353e-08   9.715e-09    -7.869    -8.013    -0.144     (0)  
   ZnCl4-2         2.436e-09   7.251e-10    -8.613    -9.140    -0.526     (0)  
   ZnOHCl          2.861e-10   2.861e-10    -9.543    -9.543     0.000     (0)  
   ZnOH(Edta)-3    1.929e-10   1.386e-11    -9.715   -10.858    -1.143     (0)  
   ZnOH+           9.860e-11   5.828e-11   -10.006   -10.234    -0.228     (0)  
   Zn(OH)2         5.829e-15   5.829e-15   -14.234   -14.234     0.000     (0)  
   Zn(OH)3-        3.118e-20   1.843e-20   -19.506   -19.734    -0.228     (0)  
   Zn(OH)4-2       3.793e-27   4.631e-28   -26.421   -27.334    -0.913     (0)  

------------------------------Saturation indices-------------------------------

  Phase               SI** log IAP   log K(298 K,   1 atm)

  Halite           -3.25     -1.65    1.60  NaCl
  O2(g)           -47.90     35.19   83.09  O2
  Zincite          -7.77      3.56   11.33  ZnO
  Zn(OH)2          -8.64      3.56   12.20  Zn(OH)2
  Zn(OH)2(am)      -8.91      3.56   12.47  Zn(OH)2
  Zn(OH)2(beta)    -8.19      3.56   11.75  Zn(OH)2
  Zn(OH)2(epsilon)  -7.97      3.56   11.53  Zn(OH)2
  Zn(OH)2(gamma)   -8.17      3.56   11.73  Zn(OH)2
  Zn2(OH)3Cl      -13.69      1.50   15.19  Zn2(OH)3Cl
  Zn5(OH)8Cl2     -31.95      6.55   38.50  Zn5(OH)8Cl2
  ZnCl2           -14.74     -7.69    7.05  ZnCl2
  Znmetal         -39.82    -14.03   25.79  Zn
  ZnO(active)      -7.63      3.56   11.19  ZnO

**For a gas, SI = log10(fugacity). Fugacity = pressure * phi / 1 atm.
  For ideal gases, phi = 1.

------------------
End of simulation.
------------------

-------------------------------------
Reading input data for simulation 13.
-------------------------------------

	SOLUTION 11
	pH		5.0
	Cl		0.2		mol/kgw
	Na		0.2		mol/kgw
	Zn	0.200 	mmol/kgw
	Edta  0.200 	mmol/kgw
	END
-------------------------------------------
Beginning of initial solution calculations.
-------------------------------------------

Initial solution 11.	

-----------------------------Solution composition------------------------------

	Elements           Molality       Moles

	Cl                2.000e-01   2.000e-01
	Edta              2.000e-04   2.000e-04
	Na                2.000e-01   2.000e-01
	Zn                2.000e-04   2.000e-04

----------------------------Description of solution----------------------------

                                       pH  =   5.000    
                                       pe  =   4.000    
                        Activity of water  =   0.993
                 Ionic strength (mol/kgw)  =   2.004e-01
                       Mass of water (kg)  =   1.000e+00
                 Total alkalinity (eq/kg)  =   3.821e-04
                         Temperature (°C)  =  25.00
                  Electrical balance (eq)  =  -3.821e-04
 Percent error, 100*(Cat-|An|)/(Cat+|An|)  =  -0.10
                               Iterations  =   9
                                  Total H  = 1.110137e+02
                                  Total O  = 5.550683e+01

----------------------------Distribution of species----------------------------

                                               Log       Log       Log    mole V
   Species          Molality    Activity  Molality  Activity     Gamma   cm³/mol

   H+              1.340e-05   1.000e-05    -4.873    -5.000    -0.127      0.00
   OH-             1.415e-09   1.000e-09    -8.849    -9.000    -0.151     (0)  
   H2O             5.551e+01   9.932e-01     1.744    -0.003     0.000     18.07
Cl            2.000e-01
   Cl-             2.000e-01   1.493e-01    -0.699    -0.826    -0.127     (0)  
   ZnCl+           3.323e-07   2.387e-07    -6.478    -6.622    -0.144     (0)  
   ZnCl2           5.647e-08   5.647e-08    -7.248    -7.248     0.000     (0)  
   ZnCl3-          9.323e-09   6.696e-09    -8.030    -8.174    -0.144     (0)  
   ZnCl4-2         1.679e-09   4.998e-10    -8.775    -9.301    -0.526     (0)  
   ZnOHCl          3.125e-10   3.125e-10    -9.505    -9.505     0.000     (0)  
Edta          2.000e-04
   Zn(Edta)-2      1.969e-04   6.110e-05    -3.706    -4.214    -0.508     (0)  
   H2(Edta)-2      1.408e-06   1.719e-07    -5.852    -6.765    -0.913     (0)  
   H(Edta)-3       1.040e-06   9.166e-09    -5.983    -8.038    -2.055     (0)  
   ZnH(Edta)-      6.384e-07   4.765e-07    -6.195    -6.322    -0.127     (0)  
   H3(Edta)-       3.824e-09   2.260e-09    -8.417    -8.646    -0.228     (0)  
   ZnOH(Edta)-3    3.080e-10   2.214e-11    -9.511   -10.655    -1.143     (0)  
   Na(Edta)-3      8.772e-11   7.730e-13   -10.057   -12.112    -2.055     (0)  
   H4(Edta)        3.267e-12   3.267e-12   -11.486   -11.486     0.000     (0)  
   Edta-4          1.114e-12   1.033e-14   -11.953   -13.986    -2.033     (0)  
   H5(Edta)+       1.748e-15   1.033e-15   -14.757   -14.986    -0.228     (0)  
H(0)          1.352e-21
   H2              6.760e-22   7.079e-22   -21.170   -21.150     0.020     (0)  
Na            2.000e-01
   Na+             2.000e-01   1.493e-01    -0.699    -0.826    -0.127     (0)  
   Na(Edta)-3      8.772e-11   7.730e-13   -10.057   -12.112    -2.055     (0)  
O(0)          0.000e+00
   O2              0.000e+00   0.000e+00   -50.021   -50.001     0.020     (0)  
Zn            2.000e-04
   Zn(Edta)-2      1.969e-04   6.110e-05    -3.706    -4.214    -0.508     (0)  
   Zn+2            2.052e-06   6.366e-07    -5.688    -6.196    -0.508     (0)  
   ZnH(Edta)-      6.384e-07   4.765e-07    -6.195    -6.322    -0.127     (0)  
   ZnCl+           3.323e-07   2.387e-07    -6.478    -6.622    -0.144     (0)  
   ZnCl2           5.647e-08   5.647e-08    -7.248    -7.248     0.000     (0)  
   ZnCl3-          9.323e-09   6.696e-09    -8.030    -8.174    -0.144     (0)  
   ZnCl4-2         1.679e-09   4.998e-10    -8.775    -9.301    -0.526     (0)  
   ZnOHCl          3.125e-10   3.125e-10    -9.505    -9.505     0.000     (0)  
   ZnOH(Edta)-3    3.080e-10   2.214e-11    -9.511   -10.655    -1.143     (0)  
   ZnOH+           1.077e-10   6.366e-11    -9.968   -10.196    -0.228     (0)  
   Zn(OH)2         1.009e-14   1.009e-14   -13.996   -13.996     0.000     (0)  
   Zn(OH)3-        8.556e-20   5.058e-20   -19.068   -19.296    -0.228     (0)  
   Zn(OH)4-2       1.649e-26   2.014e-27   -25.783   -26.696    -0.913     (0)  

------------------------------Saturation indices-------------------------------

  Phase               SI** log IAP   log K(298 K,   1 atm)

  Halite           -3.25     -1.65    1.60  NaCl
  O2(g)           -47.10     35.99   83.09  O2
  Zincite          -7.53      3.80   11.33  ZnO
  Zn(OH)2          -8.40      3.80   12.20  Zn(OH)2
  Zn(OH)2(am)      -8.68      3.80   12.47  Zn(OH)2
  Zn(OH)2(beta)    -7.96      3.80   11.75  Zn(OH)2
  Zn(OH)2(epsilon)  -7.74      3.80   11.53  Zn(OH)2
  Zn(OH)2(gamma)   -7.94      3.80   11.73  Zn(OH)2
  Zn2(OH)3Cl      -13.42      1.77   15.19  Zn2(OH)3Cl
  Zn5(OH)8Cl2     -31.16      7.34   38.50  Zn5(OH)8Cl2
  ZnCl2           -14.90     -7.85    7.05  ZnCl2
  Znmetal         -39.98    -14.20   25.79  Zn
  ZnO(active)      -7.39      3.80   11.19  ZnO

**For a gas, SI = log10(fugacity). Fugacity = pressure * phi / 1 atm.
  For ideal gases, phi = 1.

------------------
End of simulation.
------------------

-------------------------------------
Reading input data for simulation 14.
-------------------------------------

	SOLUTION 12
	pH		5.2
	Cl		0.2		mol/kgw
	Na		0.2		mol/kgw
	Zn	0.200 	mmol/kgw
	Edta  0.200 	mmol/kgw
	END
-------------------------------------------
Beginning of initial solution calculations.
-------------------------------------------

Initial solution 12.	

-----------------------------Solution composition------------------------------

	Elements           Molality       Moles

	Cl                2.000e-01   2.000e-01
	Edta              2.000e-04   2.000e-04
	Na                2.000e-01   2.000e-01
	Zn                2.000e-04   2.000e-04

----------------------------Description of solution----------------------------

                                       pH  =   5.200    
                                       pe  =   4.000    
                        Activity of water  =   0.993
                 Ionic strength (mol/kgw)  =   2.004e-01
                       Mass of water (kg)  =   1.000e+00
                 Total alkalinity (eq/kg)  =   3.886e-04
                         Temperature (°C)  =  25.00
                  Electrical balance (eq)  =  -3.886e-04
 Percent error, 100*(Cat-|An|)/(Cat+|An|)  =  -0.10
                               Iterations  =   9
                                  Total H  = 1.110137e+02
                                  Total O  = 5.550683e+01

----------------------------Distribution of species----------------------------

                                               Log       Log       Log    mole V
   Species          Molality    Activity  Molality  Activity     Gamma   cm³/mol

   H+              8.454e-06   6.310e-06    -5.073    -5.200    -0.127      0.00
   OH-             2.243e-09   1.585e-09    -8.649    -8.800    -0.151     (0)  
   H2O             5.551e+01   9.932e-01     1.744    -0.003     0.000     18.07
Cl            2.000e-01
   Cl-             2.000e-01   1.493e-01    -0.699    -0.826    -0.127     (0)  
   ZnCl+           2.348e-07   1.686e-07    -6.629    -6.773    -0.144     (0)  
   ZnCl2           3.989e-08   3.989e-08    -7.399    -7.399     0.000     (0)  
   ZnCl3-          6.586e-09   4.730e-09    -8.181    -8.325    -0.144     (0)  
   ZnCl4-2         1.186e-09   3.530e-10    -8.926    -9.452    -0.526     (0)  
   ZnOHCl          3.499e-10   3.499e-10    -9.456    -9.456     0.000     (0)  
Edta          2.000e-04
   Zn(Edta)-2      1.979e-04   6.140e-05    -3.704    -4.212    -0.508     (0)  
   H(Edta)-3       9.335e-07   8.227e-09    -6.030    -8.085    -2.055     (0)  
   H2(Edta)-2      7.971e-07   9.733e-08    -6.098    -7.012    -0.913     (0)  
   ZnH(Edta)-      4.048e-07   3.021e-07    -6.393    -6.520    -0.127     (0)  
   H3(Edta)-       1.366e-09   8.077e-10    -8.864    -9.093    -0.228     (0)  
   ZnOH(Edta)-3    4.905e-10   3.525e-11    -9.309   -10.453    -1.143     (0)  
   Na(Edta)-3      1.248e-10   1.100e-12    -9.904   -11.959    -2.055     (0)  
   Edta-4          1.585e-12   1.470e-14   -11.800   -13.833    -2.033     (0)  
   H4(Edta)        7.366e-13   7.366e-13   -12.133   -12.133     0.000     (0)  
   H5(Edta)+       2.486e-16   1.470e-16   -15.604   -15.833    -0.228     (0)  
H(0)          5.383e-22
   H2              2.691e-22   2.818e-22   -21.570   -21.550     0.020     (0)  
Na            2.000e-01
   Na+             2.000e-01   1.493e-01    -0.699    -0.826    -0.127     (0)  
   Na(Edta)-3      1.248e-10   1.100e-12    -9.904   -11.959    -2.055     (0)  
O(0)          0.000e+00
   O2              0.000e+00   0.000e+00   -49.221   -49.201     0.020     (0)  
Zn            2.000e-04
   Zn(Edta)-2      1.979e-04   6.140e-05    -3.704    -4.212    -0.508     (0)  
   Zn+2            1.449e-06   4.497e-07    -5.839    -6.347    -0.508     (0)  
   ZnH(Edta)-      4.048e-07   3.021e-07    -6.393    -6.520    -0.127     (0)  
   ZnCl+           2.348e-07   1.686e-07    -6.629    -6.773    -0.144     (0)  
   ZnCl2           3.989e-08   3.989e-08    -7.399    -7.399     0.000     (0)  
   ZnCl3-          6.586e-09   4.730e-09    -8.181    -8.325    -0.144     (0)  
   ZnCl4-2         1.186e-09   3.530e-10    -8.926    -9.452    -0.526     (0)  
   ZnOH(Edta)-3    4.905e-10   3.525e-11    -9.309   -10.453    -1.143     (0)  
   ZnOHCl          3.499e-10   3.499e-10    -9.456    -9.456     0.000     (0)  
   ZnOH+           1.206e-10   7.128e-11    -9.919   -10.147    -0.228     (0)  
   Zn(OH)2         1.791e-14   1.791e-14   -13.747   -13.747     0.000     (0)  
   Zn(OH)3-        2.406e-19   1.422e-19   -18.619   -18.847    -0.228     (0)  
   Zn(OH)4-2       7.351e-26   8.976e-27   -25.134   -26.047    -0.913     (0)  

------------------------------Saturation indices-------------------------------

  Phase               SI** log IAP   log K(298 K,   1 atm)

  Halite           -3.25     -1.65    1.60  NaCl
  O2(g)           -46.30     36.79   83.09  O2
  Zincite          -7.28      4.05   11.33  ZnO
  Zn(OH)2          -8.15      4.05   12.20  Zn(OH)2
  Zn(OH)2(am)      -8.43      4.05   12.47  Zn(OH)2
  Zn(OH)2(beta)    -7.71      4.05   11.75  Zn(OH)2
  Zn(OH)2(epsilon)  -7.49      4.05   11.53  Zn(OH)2
  Zn(OH)2(gamma)   -7.69      4.05   11.73  Zn(OH)2
  Zn2(OH)3Cl      -13.12      2.07   15.19  Zn2(OH)3Cl
  Zn5(OH)8Cl2     -30.31      8.19   38.50  Zn5(OH)8Cl2
  ZnCl2           -15.05     -8.00    7.05  ZnCl2
  Znmetal         -40.14    -14.35   25.79  Zn
  ZnO(active)      -7.14      4.05   11.19  ZnO

**For a gas, SI = log10(fugacity). Fugacity = pressure * phi / 1 atm.
  For ideal gases, phi = 1.

------------------
End of simulation.
------------------

-------------------------------------
Reading input data for simulation 15.
-------------------------------------

	SOLUTION 13
	pH		5.4
	Cl		0.2		mol/kgw
	Na		0.2		mol/kgw
	Zn	0.200 	mmol/kgw
	Edta  0.200 	mmol/kgw
	END
-------------------------------------------
Beginning of initial solution calculations.
-------------------------------------------

Initial solution 13.	

-----------------------------Solution composition------------------------------

	Elements           Molality       Moles

	Cl                2.000e-01   2.000e-01
	Edta              2.000e-04   2.000e-04
	Na                2.000e-01   2.000e-01
	Zn                2.000e-04   2.000e-04

----------------------------Description of solution----------------------------

                                       pH  =   5.400    
                                       pe  =   4.000    
                        Activity of water  =   0.993
                 Ionic strength (mol/kgw)  =   2.004e-01
                       Mass of water (kg)  =   1.000e+00
                 Total alkalinity (eq/kg)  =   3.927e-04
                         Temperature (°C)  =  25.00
                  Electrical balance (eq)  =  -3.927e-04
 Percent error, 100*(Cat-|An|)/(Cat+|An|)  =  -0.10
                               Iterations  =   9
                                  Total H  = 1.110137e+02
                                  Total O  = 5.550683e+01

----------------------------Distribution of species----------------------------

                                               Log       Log       Log    mole V
   Species          Molality    Activity  Molality  Activity     Gamma   cm³/mol

   H+              5.334e-06   3.981e-06    -5.273    -5.400    -0.127      0.00
   OH-             3.554e-09   2.512e-09    -8.449    -8.600    -0.151     (0)  
   H2O             5.551e+01   9.932e-01     1.744    -0.003     0.000     18.07
Cl            2.000e-01
   Cl-             2.000e-01   1.493e-01    -0.699    -0.826    -0.127     (0)  
   ZnCl+           1.701e-07   1.222e-07    -6.769    -6.913    -0.144     (0)  
   ZnCl2           2.891e-08   2.891e-08    -7.539    -7.539     0.000     (0)  
   ZnCl3-          4.772e-09   3.427e-09    -8.321    -8.465    -0.144     (0)  
   ZnCl4-2         8.595e-10   2.558e-10    -9.066    -9.592    -0.526     (0)  
   ZnOHCl          4.018e-10   4.018e-10    -9.396    -9.396     0.000     (0)  
Edta          2.000e-04
   Zn(Edta)-2      1.985e-04   6.159e-05    -3.702    -4.210    -0.508     (0)  
   H(Edta)-3       8.154e-07   7.186e-09    -6.089    -8.144    -2.055     (0)  
   H2(Edta)-2      4.393e-07   5.364e-08    -6.357    -7.271    -0.913     (0)  
   ZnH(Edta)-      2.562e-07   1.912e-07    -6.591    -6.718    -0.127     (0)  
   ZnOH(Edta)-3    7.799e-10   5.605e-11    -9.108   -10.251    -1.143     (0)  
   H3(Edta)-       4.751e-10   2.809e-10    -9.323    -9.552    -0.228     (0)  
   Na(Edta)-3      1.727e-10   1.522e-12    -9.763   -11.818    -2.055     (0)  
   Edta-4          2.194e-12   2.035e-14   -11.659   -13.692    -2.033     (0)  
   H4(Edta)        1.616e-13   1.616e-13   -12.792   -12.792     0.000     (0)  
   H5(Edta)+       3.442e-17   2.035e-17   -16.463   -16.692    -0.228     (0)  
H(0)          2.143e-22
   H2              1.071e-22   1.122e-22   -21.970   -21.950     0.020     (0)  
Na            2.000e-01
   Na+             2.000e-01   1.493e-01    -0.699    -0.826    -0.127     (0)  
   Na(Edta)-3      1.727e-10   1.522e-12    -9.763   -11.818    -2.055     (0)  
O(0)          0.000e+00
   O2              0.000e+00   0.000e+00   -48.421   -48.401     0.020     (0)  
Zn            2.000e-04
   Zn(Edta)-2      1.985e-04   6.159e-05    -3.702    -4.210    -0.508     (0)  
   Zn+2            1.050e-06   3.259e-07    -5.979    -6.487    -0.508     (0)  
   ZnH(Edta)-      2.562e-07   1.912e-07    -6.591    -6.718    -0.127     (0)  
   ZnCl+           1.701e-07   1.222e-07    -6.769    -6.913    -0.144     (0)  
   ZnCl2           2.891e-08   2.891e-08    -7.539    -7.539     0.000     (0)  
   ZnCl3-          4.772e-09   3.427e-09    -8.321    -8.465    -0.144     (0)  
   ZnCl4-2         8.595e-10   2.558e-10    -9.066    -9.592    -0.526     (0)  
   ZnOH(Edta)-3    7.799e-10   5.605e-11    -9.108   -10.251    -1.143     (0)  
   ZnOHCl          4.018e-10   4.018e-10    -9.396    -9.396     0.000     (0)  
   ZnOH+           1.385e-10   8.186e-11    -9.859   -10.087    -0.228     (0)  
   Zn(OH)2         3.259e-14   3.259e-14   -13.487   -13.487     0.000     (0)  
   Zn(OH)3-        6.942e-19   4.103e-19   -18.159   -18.387    -0.228     (0)  
   Zn(OH)4-2       3.361e-25   4.104e-26   -24.474   -25.387    -0.913     (0)  

------------------------------Saturation indices-------------------------------

  Phase               SI** log IAP   log K(298 K,   1 atm)

  Halite           -3.25     -1.65    1.60  NaCl
  O2(g)           -45.50     37.59   83.09  O2
  Zincite          -7.02      4.31   11.33  ZnO
  Zn(OH)2          -7.89      4.31   12.20  Zn(OH)2
  Zn(OH)2(am)      -8.17      4.31   12.47  Zn(OH)2
  Zn(OH)2(beta)    -7.45      4.31   11.75  Zn(OH)2
  Zn(OH)2(epsilon)  -7.23      4.31   11.53  Zn(OH)2
  Zn(OH)2(gamma)   -7.43      4.31   11.73  Zn(OH)2
  Zn2(OH)3Cl      -12.80      2.39   15.19  Zn2(OH)3Cl
  Zn5(OH)8Cl2     -29.41      9.09   38.50  Zn5(OH)8Cl2
  ZnCl2           -15.19     -8.14    7.05  ZnCl2
  Znmetal         -40.28    -14.49   25.79  Zn
  ZnO(active)      -6.88      4.31   11.19  ZnO

**For a gas, SI = log10(fugacity). Fugacity = pressure * phi / 1 atm.
  For ideal gases, phi = 1.

------------------
End of simulation.
------------------

-------------------------------------
Reading input data for simulation 16.
-------------------------------------

	SOLUTION 14
	pH		5.6
	Cl		0.2		mol/kgw
	Na		0.2		mol/kgw
	Zn	0.200 	mmol/kgw
	Edta  0.200 	mmol/kgw
	END
-------------------------------------------
Beginning of initial solution calculations.
-------------------------------------------

Initial solution 14.	

-----------------------------Solution composition------------------------------

	Elements           Molality       Moles

	Cl                2.000e-01   2.000e-01
	Edta              2.000e-04   2.000e-04
	Na                2.000e-01   2.000e-01
	Zn                2.000e-04   2.000e-04

----------------------------Description of solution----------------------------

                                       pH  =   5.600    
                                       pe  =   4.000    
                        Activity of water  =   0.993
                 Ionic strength (mol/kgw)  =   2.004e-01
                       Mass of water (kg)  =   1.000e+00
                 Total alkalinity (eq/kg)  =   3.953e-04
                         Temperature (°C)  =  25.00
                  Electrical balance (eq)  =  -3.953e-04
 Percent error, 100*(Cat-|An|)/(Cat+|An|)  =  -0.10
                               Iterations  =   9
                                  Total H  = 1.110137e+02
                                  Total O  = 5.550683e+01

----------------------------Distribution of species----------------------------

                                               Log       Log       Log    mole V
   Species          Molality    Activity  Molality  Activity     Gamma   cm³/mol

   H+              3.366e-06   2.512e-06    -5.473    -5.600    -0.127      0.00
   OH-             5.633e-09   3.981e-09    -8.249    -8.400    -0.151     (0)  
   H2O             5.551e+01   9.932e-01     1.744    -0.003     0.000     18.07
Cl            2.000e-01
   Cl-             2.000e-01   1.493e-01    -0.699    -0.826    -0.127     (0)  
   ZnCl+           1.262e-07   9.065e-08    -6.899    -7.043    -0.144     (0)  
   ZnCl2           2.145e-08   2.145e-08    -7.669    -7.669     0.000     (0)  
   ZnCl3-          3.541e-09   2.543e-09    -8.451    -8.595    -0.144     (0)  
   ZnCl4-2         6.377e-10   1.898e-10    -9.195    -9.722    -0.526     (0)  
   ZnOHCl          4.725e-10   4.725e-10    -9.326    -9.326     0.000     (0)  
Edta          2.000e-04
   Zn(Edta)-2      1.989e-04   6.172e-05    -3.701    -4.210    -0.508     (0)  
   H(Edta)-3       6.949e-07   6.124e-09    -6.158    -8.213    -2.055     (0)  
   H2(Edta)-2      2.362e-07   2.884e-08    -6.627    -7.540    -0.913     (0)  
   ZnH(Edta)-      1.620e-07   1.209e-07    -6.791    -6.918    -0.127     (0)  
   ZnOH(Edta)-3    1.239e-09   8.902e-11    -8.907   -10.051    -1.143     (0)  
   Na(Edta)-3      2.333e-10   2.056e-12    -9.632   -11.687    -2.055     (0)  
   H3(Edta)-       1.612e-10   9.529e-11    -9.793   -10.021    -0.228     (0)  
   Edta-4          2.964e-12   2.748e-14   -11.528   -13.561    -2.033     (0)  
   H4(Edta)        3.460e-14   3.460e-14   -13.461   -13.461     0.000     (0)  
   H5(Edta)+       4.649e-18   2.748e-18   -17.333   -17.561    -0.228     (0)  
H(0)          8.531e-23
   H2              4.265e-23   4.467e-23   -22.370   -22.350     0.020     (0)  
Na            2.000e-01
   Na+             2.000e-01   1.493e-01    -0.699    -0.826    -0.127     (0)  
   Na(Edta)-3      2.333e-10   2.056e-12    -9.632   -11.687    -2.055     (0)  
O(0)          0.000e+00
   O2              0.000e+00   0.000e+00   -47.621   -47.601     0.020     (0)  
Zn            2.000e-04
   Zn(Edta)-2      1.989e-04   6.172e-05    -3.701    -4.210    -0.508     (0)  
   Zn+2            7.791e-07   2.418e-07    -6.108    -6.617    -0.508     (0)  
   ZnH(Edta)-      1.620e-07   1.209e-07    -6.791    -6.918    -0.127     (0)  
   ZnCl+           1.262e-07   9.065e-08    -6.899    -7.043    -0.144     (0)  
   ZnCl2           2.145e-08   2.145e-08    -7.669    -7.669     0.000     (0)  
   ZnCl3-          3.541e-09   2.543e-09    -8.451    -8.595    -0.144     (0)  
   ZnOH(Edta)-3    1.239e-09   8.902e-11    -8.907   -10.051    -1.143     (0)  
   ZnCl4-2         6.377e-10   1.898e-10    -9.195    -9.722    -0.526     (0)  
   ZnOHCl          4.725e-10   4.725e-10    -9.326    -9.326     0.000     (0)  
   ZnOH+           1.628e-10   9.625e-11    -9.788   -10.017    -0.228     (0)  
   Zn(OH)2         6.074e-14   6.074e-14   -13.217   -13.217     0.000     (0)  
   Zn(OH)3-        2.050e-18   1.212e-18   -17.688   -17.917    -0.228     (0)  
   Zn(OH)4-2       1.573e-24   1.921e-25   -23.803   -24.716    -0.913     (0)  

------------------------------Saturation indices-------------------------------

  Phase               SI** log IAP   log K(298 K,   1 atm)

  Halite           -3.25     -1.65    1.60  NaCl
  O2(g)           -44.70     38.39   83.09  O2
  Zincite          -6.75      4.58   11.33  ZnO
[...]
   H3(Edta)-       9.515e-20   5.624e-20   -19.022   -19.250    -0.228     (0)  
   H4(Edta)        3.236e-27   3.236e-27   -26.490   -26.490     0.000     (0)  
   H5(Edta)+       6.893e-35   4.074e-35   -34.162   -34.390    -0.228     (0)  
H(0)          2.143e-30
   H2              1.071e-30   1.122e-30   -29.970   -29.950     0.020     (0)  
Na            2.000e-01
   Na+             2.000e-01   1.493e-01    -0.699    -0.826    -0.127     (0)  
   Na(Edta)-3      3.460e-08   3.048e-10    -7.461    -9.516    -2.055     (0)  
O(0)          7.585e-33
   O2              3.793e-33   3.972e-33   -32.421   -32.401     0.020     (0)  
Zn            2.000e-04
   Zn(Edta)-2      1.924e-04   5.970e-05    -3.716    -4.224    -0.508     (0)  
   ZnOH(Edta)-3    7.560e-06   5.432e-07    -5.122    -6.265    -1.144     (0)  
   ZnOHCl          1.945e-08   1.945e-08    -7.711    -7.711     0.000     (0)  
   Zn(OH)2         1.577e-08   1.577e-08    -7.802    -7.802     0.000     (0)  
   ZnOH+           6.703e-09   3.962e-09    -8.174    -8.402    -0.228     (0)  
   Zn+2            5.083e-09   1.577e-09    -8.294    -8.802    -0.508     (0)  
   Zn(OH)3-        3.360e-09   1.986e-09    -8.474    -8.702    -0.228     (0)  
   ZnCl+           8.234e-10   5.914e-10    -9.084    -9.228    -0.144     (0)  
   ZnCl2           1.399e-10   1.399e-10    -9.854    -9.854     0.000     (0)  
   ZnH(Edta)-      2.483e-11   1.853e-11   -10.605   -10.732    -0.127     (0)  
   ZnCl3-          2.310e-11   1.659e-11   -10.636   -10.780    -0.144     (0)  
   Zn(OH)4-2       1.627e-11   1.986e-12   -10.789   -11.702    -0.913     (0)  
   ZnCl4-2         4.160e-12   1.238e-12   -11.381   -11.907    -0.526     (0)  

------------------------------Saturation indices-------------------------------

  Phase               SI** log IAP   log K(298 K,   1 atm)

  Halite           -3.25     -1.65    1.60  NaCl
  O2(g)           -29.50     53.59   83.09  O2
  Zincite          -1.34      9.99   11.33  ZnO
  Zn(OH)2          -2.21      9.99   12.20  Zn(OH)2
  Zn(OH)2(am)      -2.48      9.99   12.47  Zn(OH)2
  Zn(OH)2(beta)    -1.76      9.99   11.75  Zn(OH)2
  Zn(OH)2(epsilon)  -1.54      9.99   11.53  Zn(OH)2
  Zn(OH)2(gamma)   -1.74      9.99   11.73  Zn(OH)2
  Zn2(OH)3Cl       -5.43      9.76   15.19  Zn2(OH)3Cl
  Zn5(OH)8Cl2      -8.99     29.51   38.50  Zn5(OH)8Cl2
  ZnCl2           -17.50    -10.45    7.05  ZnCl2
  Znmetal         -42.59    -16.80   25.79  Zn
  ZnO(active)      -1.19      9.99   11.19  ZnO

**For a gas, SI = log10(fugacity). Fugacity = pressure * phi / 1 atm.
  For ideal gases, phi = 1.

------------------
End of simulation.
------------------

-------------------------------------
Reading input data for simulation 36.
-------------------------------------

	SOLUTION 34
	pH		9.6
	Cl		0.2		mol/kgw
	Na		0.2		mol/kgw
	Zn	0.200 	mmol/kgw
	Edta  0.200 	mmol/kgw
	END
-------------------------------------------
Beginning of initial solution calculations.
-------------------------------------------

Initial solution 34.	

-----------------------------Solution composition------------------------------

	Elements           Molality       Moles

	Cl                2.000e-01   2.000e-01
	Edta              2.000e-04   2.000e-04
	Na                2.000e-01   2.000e-01
	Zn                2.000e-04   2.000e-04

----------------------------Description of solution----------------------------

                                       pH  =   9.600    
                                       pe  =   4.000    
                        Activity of water  =   0.993
                 Ionic strength (mol/kgw)  =   2.005e-01
                       Mass of water (kg)  =   1.000e+00
                 Total alkalinity (eq/kg)  =   4.681e-04
                         Temperature (°C)  =  25.00
                  Electrical balance (eq)  =  -4.681e-04
 Percent error, 100*(Cat-|An|)/(Cat+|An|)  =  -0.12
                               Iterations  =   6
                                  Total H  = 1.110137e+02
                                  Total O  = 5.550690e+01

----------------------------Distribution of species----------------------------

                                               Log       Log       Log    mole V
   Species          Molality    Activity  Molality  Activity     Gamma   cm³/mol

   OH-             5.634e-05   3.981e-05    -4.249    -4.400    -0.151     (0)  
   H+              3.366e-10   2.512e-10    -9.473    -9.600    -0.127      0.00
   H2O             5.551e+01   9.932e-01     1.744    -0.003     0.000     18.07
Cl            2.000e-01
   Cl-             2.000e-01   1.493e-01    -0.699    -0.826    -0.127     (0)  
   ZnOHCl          2.047e-08   2.047e-08    -7.689    -7.689     0.000     (0)  
   ZnCl+           5.468e-10   3.927e-10    -9.262    -9.406    -0.144     (0)  
   ZnCl2           9.290e-11   9.290e-11   -10.032   -10.032     0.000     (0)  
   ZnCl3-          1.534e-11   1.102e-11   -10.814   -10.958    -0.144     (0)  
   ZnCl4-2         2.763e-12   8.222e-13   -11.559   -12.085    -0.526     (0)  
Edta          2.000e-04
   Zn(Edta)-2      1.882e-04   5.840e-05    -3.725    -4.234    -0.508     (0)  
   ZnOH(Edta)-3    1.172e-05   8.423e-07    -4.931    -6.075    -1.144     (0)  
   Na(Edta)-3      5.099e-08   4.490e-10    -7.293    -9.348    -2.055     (0)  
   H(Edta)-3       1.519e-08   1.338e-10    -7.819    -9.874    -2.055     (0)  
   Edta-4          6.475e-10   6.002e-12    -9.189   -11.222    -2.033     (0)  
   ZnH(Edta)-      1.533e-11   1.144e-11   -10.815   -10.942    -0.127     (0)  
   H2(Edta)-2      5.161e-13   6.300e-14   -12.287   -13.201    -0.913     (0)  
   H3(Edta)-       3.521e-20   2.081e-20   -19.453   -19.682    -0.228     (0)  
   H4(Edta)        7.556e-28   7.556e-28   -27.122   -27.122     0.000     (0)  
   H5(Edta)+       1.015e-35   6.002e-36   -34.993   -35.222    -0.228     (0)  
H(0)          8.531e-31
   H2              4.265e-31   4.467e-31   -30.370   -30.350     0.020     (0)  
Na            2.000e-01
   Na+             2.000e-01   1.493e-01    -0.699    -0.826    -0.127     (0)  
   Na(Edta)-3      5.099e-08   4.490e-10    -7.293    -9.348    -2.055     (0)  
O(0)          4.786e-32
   O2              2.393e-32   2.506e-32   -31.621   -31.601     0.020     (0)  
Zn            2.000e-04
   Zn(Edta)-2      1.882e-04   5.840e-05    -3.725    -4.234    -0.508     (0)  
   ZnOH(Edta)-3    1.172e-05   8.423e-07    -4.931    -6.075    -1.144     (0)  
   Zn(OH)2         2.631e-08   2.631e-08    -7.580    -7.580     0.000     (0)  
   ZnOHCl          2.047e-08   2.047e-08    -7.689    -7.689     0.000     (0)  
   Zn(OH)3-        8.883e-09   5.250e-09    -8.051    -8.280    -0.228     (0)  
   ZnOH+           7.055e-09   4.170e-09    -8.152    -8.380    -0.228     (0)  
   Zn+2            3.375e-09   1.047e-09    -8.472    -8.980    -0.508     (0)  
   ZnCl+           5.468e-10   3.927e-10    -9.262    -9.406    -0.144     (0)  
   ZnCl2           9.290e-11   9.290e-11   -10.032   -10.032     0.000     (0)  
   Zn(OH)4-2       6.818e-11   8.322e-12   -10.166   -11.080    -0.913     (0)  
   ZnCl3-          1.534e-11   1.102e-11   -10.814   -10.958    -0.144     (0)  
   ZnH(Edta)-      1.533e-11   1.144e-11   -10.815   -10.942    -0.127     (0)  
   ZnCl4-2         2.763e-12   8.222e-13   -11.559   -12.085    -0.526     (0)  

------------------------------Saturation indices-------------------------------

  Phase               SI** log IAP   log K(298 K,   1 atm)

  Halite           -3.25     -1.65    1.60  NaCl
  O2(g)           -28.70     54.39   83.09  O2
  Zincite          -1.12     10.22   11.33  ZnO
  Zn(OH)2          -1.99     10.21   12.20  Zn(OH)2
  Zn(OH)2(am)      -2.26     10.21   12.47  Zn(OH)2
  Zn(OH)2(beta)    -1.54     10.21   11.75  Zn(OH)2
  Zn(OH)2(epsilon)  -1.32     10.21   11.53  Zn(OH)2
  Zn(OH)2(gamma)   -1.52     10.21   11.73  Zn(OH)2
  Zn2(OH)3Cl       -5.19     10.01   15.19  Zn2(OH)3Cl
  Zn5(OH)8Cl2      -8.28     30.22   38.50  Zn5(OH)8Cl2
  ZnCl2           -17.68    -10.63    7.05  ZnCl2
  Znmetal         -42.77    -16.98   25.79  Zn
  ZnO(active)      -0.97     10.22   11.19  ZnO

**For a gas, SI = log10(fugacity). Fugacity = pressure * phi / 1 atm.
  For ideal gases, phi = 1.

------------------
End of simulation.
------------------

-------------------------------------
Reading input data for simulation 37.
-------------------------------------

	SOLUTION 35
	pH		9.8
	Cl		0.2		mol/kgw
	Na		0.2		mol/kgw
	Zn	0.200 	mmol/kgw
	Edta  0.200 	mmol/kgw
	END
-------------------------------------------
Beginning of initial solution calculations.
-------------------------------------------

Initial solution 35.	

-----------------------------Solution composition------------------------------

	Elements           Molality       Moles

	Cl                2.000e-01   2.000e-01
	Edta              2.000e-04   2.000e-04
	Na                2.000e-01   2.000e-01
	Zn                2.000e-04   2.000e-04

----------------------------Description of solution----------------------------

                                       pH  =   9.800    
                                       pe  =   4.000    
                        Activity of water  =   0.993
                 Ionic strength (mol/kgw)  =   2.005e-01
                       Mass of water (kg)  =   1.000e+00
                 Total alkalinity (eq/kg)  =   5.074e-04
                         Temperature (°C)  =  25.00
                  Electrical balance (eq)  =  -5.074e-04
 Percent error, 100*(Cat-|An|)/(Cat+|An|)  =  -0.13
                               Iterations  =   6
                                  Total H  = 1.110138e+02
                                  Total O  = 5.550694e+01

----------------------------Distribution of species----------------------------

                                               Log       Log       Log    mole V
   Species          Molality    Activity  Molality  Activity     Gamma   cm³/mol

   OH-             8.929e-05   6.310e-05    -4.049    -4.200    -0.151     (0)  
   H+              2.124e-10   1.585e-10    -9.673    -9.800    -0.127      0.00
   H2O             5.551e+01   9.932e-01     1.744    -0.003     0.000     18.07
Cl            2.000e-01
   Cl-             2.000e-01   1.493e-01    -0.699    -0.826    -0.127     (0)  
   ZnOHCl          2.041e-08   2.041e-08    -7.690    -7.690     0.000     (0)  
   ZnCl+           3.440e-10   2.471e-10    -9.463    -9.607    -0.144     (0)  
   ZnCl2           5.845e-11   5.845e-11   -10.233   -10.233     0.000     (0)  
   ZnCl3-          9.650e-12   6.930e-12   -11.015   -11.159    -0.144     (0)  
   ZnCl4-2         1.738e-12   5.173e-13   -11.760   -12.286    -0.526     (0)  
Edta          2.000e-04
   Zn(Edta)-2      1.819e-04   5.645e-05    -3.740    -4.248    -0.508     (0)  
   ZnOH(Edta)-3    1.796e-05   1.290e-06    -4.746    -5.889    -1.144     (0)  
   Na(Edta)-3      7.836e-08   6.899e-10    -7.106    -9.161    -2.055     (0)  
   H(Edta)-3       1.473e-08   1.297e-10    -7.832    -9.887    -2.055     (0)  
   Edta-4          9.950e-10   9.222e-12    -9.002   -11.035    -2.033     (0)  
   ZnH(Edta)-      9.349e-12   6.977e-12   -11.029   -11.156    -0.127     (0)  
   H2(Edta)-2      3.157e-13   3.853e-14   -12.501   -13.414    -0.913     (0)  
   H3(Edta)-       1.359e-20   8.032e-21   -19.867   -20.095    -0.228     (0)  
   H4(Edta)        1.840e-28   1.840e-28   -27.735   -27.735     0.000     (0)  
   H5(Edta)+       1.560e-36   9.222e-37   -35.807   -36.035    -0.228     (0)  
H(0)          3.396e-31
   H2              1.698e-31   1.778e-31   -30.770   -30.750     0.020     (0)  
Na            2.000e-01
   Na+             2.000e-01   1.493e-01    -0.699    -0.826    -0.127     (0)  
   Na(Edta)-3      7.836e-08   6.899e-10    -7.106    -9.161    -2.055     (0)  
O(0)          3.020e-31
   O2              1.510e-31   1.581e-31   -30.821   -30.801     0.020     (0)  
Zn            2.000e-04
   Zn(Edta)-2      1.819e-04   5.645e-05    -3.740    -4.248    -0.508     (0)  
   ZnOH(Edta)-3    1.796e-05   1.290e-06    -4.746    -5.889    -1.144     (0)  
   Zn(OH)2         4.158e-08   4.158e-08    -7.381    -7.381     0.000     (0)  
   Zn(OH)3-        2.225e-08   1.315e-08    -7.653    -7.881    -0.228     (0)  
   ZnOHCl          2.041e-08   2.041e-08    -7.690    -7.690     0.000     (0)  
   ZnOH+           7.035e-09   4.158e-09    -8.153    -8.381    -0.228     (0)  
   Zn+2            2.124e-09   6.590e-10    -8.673    -9.181    -0.508     (0)  
   ZnCl+           3.440e-10   2.471e-10    -9.463    -9.607    -0.144     (0)  
   Zn(OH)4-2       2.707e-10   3.304e-11    -9.568   -10.481    -0.913     (0)  
   ZnCl2           5.845e-11   5.845e-11   -10.233   -10.233     0.000     (0)  
   ZnCl3-          9.650e-12   6.930e-12   -11.015   -11.159    -0.144     (0)  
   ZnH(Edta)-      9.349e-12   6.977e-12   -11.029   -11.156    -0.127     (0)  
   ZnCl4-2         1.738e-12   5.173e-13   -11.760   -12.286    -0.526     (0)  

------------------------------Saturation indices-------------------------------

  Phase               SI** log IAP   log K(298 K,   1 atm)

  Halite           -3.25     -1.65    1.60  NaCl
  O2(g)           -27.90     55.19   83.09  O2
  Zincite          -0.92     10.42   11.33  ZnO
  Zn(OH)2          -1.79     10.41   12.20  Zn(OH)2
  Zn(OH)2(am)      -2.06     10.41   12.47  Zn(OH)2
  Zn(OH)2(beta)    -1.34     10.41   11.75  Zn(OH)2
  Zn(OH)2(epsilon)  -1.12     10.41   11.53  Zn(OH)2
  Zn(OH)2(gamma)   -1.32     10.41   11.73  Zn(OH)2
  Zn2(OH)3Cl       -4.99     10.20   15.19  Zn2(OH)3Cl
  Zn5(OH)8Cl2      -7.68     30.82   38.50  Zn5(OH)8Cl2
  ZnCl2           -17.88    -10.83    7.05  ZnCl2
  Znmetal         -42.97    -17.18   25.79  Zn
  ZnO(active)      -0.77     10.42   11.19  ZnO

**For a gas, SI = log10(fugacity). Fugacity = pressure * phi / 1 atm.
  For ideal gases, phi = 1.

------------------
End of simulation.
------------------

-------------------------------------
Reading input data for simulation 38.
-------------------------------------

	SOLUTION 36
	pH		10.0
	Cl		0.2		mol/kgw
	Na		0.2		mol/kgw
	Zn	0.200 	mmol/kgw
	Edta  0.200 	mmol/kgw
	END
-------------------------------------------
Beginning of initial solution calculations.
-------------------------------------------

Initial solution 36.	

-----------------------------Solution composition------------------------------

	Elements           Molality       Moles

	Cl                2.000e-01   2.000e-01
	Edta              2.000e-04   2.000e-04
	Na                2.000e-01   2.000e-01
	Zn                2.000e-04   2.000e-04

----------------------------Description of solution----------------------------

                                       pH  =  10.000    
                                       pe  =   4.000    
                        Activity of water  =   0.993
                 Ionic strength (mol/kgw)  =   2.005e-01
                       Mass of water (kg)  =   1.000e+00
                 Total alkalinity (eq/kg)  =   5.688e-04
                         Temperature (°C)  =  25.00
                  Electrical balance (eq)  =  -5.688e-04
 Percent error, 100*(Cat-|An|)/(Cat+|An|)  =  -0.14
                               Iterations  =   6
                                  Total H  = 1.110138e+02
                                  Total O  = 5.550700e+01

----------------------------Distribution of species----------------------------

                                               Log       Log       Log    mole V
   Species          Molality    Activity  Molality  Activity     Gamma   cm³/mol

   OH-             1.415e-04   1.000e-04    -3.849    -4.000    -0.151     (0)  
   H+              1.340e-10   1.000e-10    -9.873   -10.000    -0.127      0.00
   H2O             5.551e+01   9.932e-01     1.744    -0.003     0.000     18.07
Cl            2.000e-01
   Cl-             2.000e-01   1.493e-01    -0.699    -0.826    -0.127     (0)  
   ZnOHCl          1.913e-08   1.913e-08    -7.718    -7.718     0.000     (0)  
   ZnCl+           2.035e-10   1.461e-10    -9.691    -9.835    -0.144     (0)  
   ZnCl2           3.457e-11   3.457e-11   -10.461   -10.461     0.000     (0)  
   ZnCl3-          5.708e-12   4.099e-12   -11.244   -11.387    -0.144     (0)  
   ZnCl4-2         1.028e-12   3.060e-13   -11.988   -12.514    -0.526     (0)  
Edta          2.000e-04
   Zn(Edta)-2      1.728e-04   5.362e-05    -3.762    -4.271    -0.508     (0)  
   ZnOH(Edta)-3    2.704e-05   1.942e-06    -4.568    -5.712    -1.144     (0)  
   Na(Edta)-3      1.259e-07   1.108e-09    -6.900    -8.956    -2.056     (0)  
   H(Edta)-3       1.493e-08   1.314e-10    -7.826    -9.882    -2.056     (0)  
   Edta-4          1.598e-09   1.481e-11    -8.796   -10.830    -2.033     (0)  
   ZnH(Edta)-      5.603e-12   4.181e-12   -11.252   -11.379    -0.127     (0)  
   H2(Edta)-2      2.019e-13   2.463e-14   -12.695   -13.609    -0.914     (0)  
   H3(Edta)-       5.481e-21   3.240e-21   -20.261   -20.490    -0.228     (0)  
   H4(Edta)        4.683e-29   4.683e-29   -28.330   -28.330     0.000     (0)  
   H5(Edta)+       2.505e-37   1.481e-37   -36.601   -36.830    -0.228     (0)  
H(0)          1.352e-31
   H2              6.760e-32   7.079e-32   -31.170   -31.150     0.020     (0)  
Na            2.000e-01
   Na+             2.000e-01   1.493e-01    -0.699    -0.826    -0.127     (0)  
   Na(Edta)-3      1.259e-07   1.108e-09    -6.900    -8.956    -2.056     (0)  
O(0)          1.905e-30
   O2              9.527e-31   9.977e-31   -30.021   -30.001     0.020     (0)  
Zn            2.000e-04
   Zn(Edta)-2      1.728e-04   5.362e-05    -3.762    -4.271    -0.508     (0)  
   ZnOH(Edta)-3    2.704e-05   1.942e-06    -4.568    -5.712    -1.144     (0)  
   Zn(OH)2         6.179e-08   6.179e-08    -7.209    -7.209     0.000     (0)  
   Zn(OH)3-        5.240e-08   3.097e-08    -7.281    -7.509    -0.228     (0)  
   ZnOHCl          1.913e-08   1.913e-08    -7.718    -7.718     0.000     (0)  
   ZnOH+           6.596e-09   3.898e-09    -8.181    -8.409    -0.228     (0)  
   Zn+2            1.256e-09   3.898e-10    -8.901    -9.409    -0.508     (0)  
   Zn(OH)4-2       1.011e-09   1.233e-10    -8.995    -9.909    -0.914     (0)  
   ZnCl+           2.035e-10   1.461e-10    -9.691    -9.835    -0.144     (0)  
   ZnCl2           3.457e-11   3.457e-11   -10.461   -10.461     0.000     (0)  
   ZnCl3-          5.708e-12   4.099e-12   -11.244   -11.387    -0.144     (0)  
   ZnH(Edta)-      5.603e-12   4.181e-12   -11.252   -11.379    -0.127     (0)  
   ZnCl4-2         1.028e-12   3.060e-13   -11.988   -12.514    -0.526     (0)  

------------------------------Saturation indices-------------------------------

  Phase               SI** log IAP   log K(298 K,   1 atm)

  Halite           -3.25     -1.65    1.60  NaCl
  O2(g)           -27.10     55.99   83.09  O2
  Zincite          -0.75     10.59   11.33  ZnO
  Zn(OH)2          -1.62     10.58   12.20  Zn(OH)2
  Zn(OH)2(am)      -1.89     10.58   12.47  Zn(OH)2
  Zn(OH)2(beta)    -1.17     10.58   11.75  Zn(OH)2
  Zn(OH)2(epsilon)  -0.95     10.58   11.53  Zn(OH)2
  Zn(OH)2(gamma)   -1.15     10.58   11.73  Zn(OH)2
  Zn2(OH)3Cl       -4.84     10.35   15.19  Zn2(OH)3Cl
  Zn5(OH)8Cl2      -7.22     31.28   38.50  Zn5(OH)8Cl2
  ZnCl2           -18.11    -11.06    7.05  ZnCl2
  Znmetal         -43.20    -17.41   25.79  Zn
  ZnO(active)      -0.60     10.59   11.19  ZnO

**For a gas, SI = log10(fugacity). Fugacity = pressure * phi / 1 atm.
  For ideal gases, phi = 1.

------------------
End of simulation.
------------------

-------------------------------------
Reading input data for simulation 39.
-------------------------------------

----------------------------------
End of Run after 0.062893 Seconds.
----------------------------------

