   Input file: /Users/wangjincheng/Desktop/irp-jw21-main/Project_jw21/pqi/0.3ZnEdta.pqi
  Output file: /Users/wangjincheng/Desktop/irp-jw21-main/Project_jw21/pqo/0.3ZnEdta.pqi.pqi.out
Database file: /Users/wangjincheng/Desktop/irp-jw21-main/Project_jw21/phreeqc/database/minteq.v4.dat

------------------
Reading data base.
------------------

	SOLUTION_MASTER_SPECIES
	SOLUTION_SPECIES
	SOLUTION_SPECIES
	PHASES
	PHASES
	SURFACE_MASTER_SPECIES
	SURFACE_SPECIES
	END
------------------------------------
Reading input data for simulation 1.
------------------------------------

	DATABASE /Users/wangjincheng/Desktop/irp-jw21-main/Project_jw21/phreeqc/database/minteq.v4.dat
	TITLE 04_SURFACE_COMPLEXATION
	SOLUTION_MASTER_SPECIES
	Zn		Zn+2		0.0	Zn	65.39
	Edta		Edta-4		2.0	288.214	288.214
	END
-----
TITLE
-----

 04_SURFACE_COMPLEXATION

------------------
End of simulation.
------------------

------------------------------------
Reading input data for simulation 2.
------------------------------------

	SOLUTION_SPECIES
	Zn+2 + Edta-4 = Zn(Edta)-2
	log_k		15.847
	Zn+2 + Edta-4 + H+ = ZnH(Edta)-
	log_k		18.708
	Zn+2 + Edta-4 + H2O = ZnOH(Edta)-3 + H+
	log_k		4.454
	END
------------------
End of simulation.
------------------

------------------------------------
Reading input data for simulation 3.
------------------------------------

	SOLUTION 1
	pH		3.0
	Cl		0.3		mol/kgw
	Na		0.3		mol/kgw
	Zn	0.200 	mmol/kgw
	Edta  0.200 	mmol/kgw
	END
-------------------------------------------
Beginning of initial solution calculations.
-------------------------------------------

Initial solution 1.	

-----------------------------Solution composition------------------------------

	Elements           Molality       Moles

	Cl                3.000e-01   3.000e-01
	Edta              2.000e-04   2.000e-04
	Na                3.000e-01   3.000e-01
	Zn                2.000e-04   2.000e-04

----------------------------Description of solution----------------------------

                                       pH  =   3.000    
                                       pe  =   4.000    
                        Activity of water  =   0.990
                 Ionic strength (mol/kgw)  =   3.012e-01
                       Mass of water (kg)  =   1.000e+00
                 Total alkalinity (eq/kg)  =  -1.291e-03
                         Temperature (°C)  =  25.00
                  Electrical balance (eq)  =   1.291e-03
 Percent error, 100*(Cat-|An|)/(Cat+|An|)  =   0.21
                               Iterations  =   9
                                  Total H  = 1.110154e+02
                                  Total O  = 5.550683e+01

----------------------------Distribution of species----------------------------

                                               Log       Log       Log    mole V
   Species          Molality    Activity  Molality  Activity     Gamma   cm³/mol

   H+              1.363e-03   1.000e-03    -2.865    -3.000    -0.135      0.00
   OH-             1.480e-11   9.966e-12   -10.830   -11.001    -0.172     (0)  
   H2O             5.551e+01   9.898e-01     1.744    -0.004     0.000     18.07
Cl            3.000e-01
   Cl-             3.000e-01   2.200e-01    -0.523    -0.658    -0.135     (0)  
   ZnCl+           2.586e-05   1.778e-05    -4.587    -4.750    -0.163     (0)  
   ZnCl2           6.200e-06   6.200e-06    -5.208    -5.208     0.000     (0)  
   ZnCl3-          1.575e-06   1.083e-06    -5.803    -5.965    -0.163     (0)  
   ZnCl4-2         4.624e-07   1.192e-07    -6.335    -6.924    -0.589     (0)  
   ZnOHCl          2.320e-10   2.320e-10    -9.635    -9.635     0.000     (0)  
Edta          2.000e-04
   H2(Edta)-2      1.192e-04   9.048e-06    -3.924    -5.043    -1.120     (0)  
   Zn(Edta)-2      4.253e-05   1.231e-05    -4.371    -4.910    -0.539     (0)  
   H3(Edta)-       2.267e-05   1.190e-05    -4.645    -4.924    -0.280     (0)  
   ZnH(Edta)-      1.218e-05   8.935e-06    -4.914    -5.049    -0.135     (0)  
   H4(Edta)        1.720e-06   1.720e-06    -5.764    -5.764     0.000     (0)  
   H(Edta)-3       1.596e-06   4.826e-09    -5.797    -8.316    -2.519     (0)  
   H5(Edta)+       1.036e-07   5.439e-08    -6.985    -7.264    -0.280     (0)  
   Na(Edta)-3      1.983e-12   5.998e-15   -11.703   -14.222    -2.519     (0)  
   ZnOH(Edta)-3    8.024e-13   4.927e-14   -12.096   -13.307    -1.212     (0)  
   Edta-4          7.759e-15   5.439e-17   -14.110   -16.264    -2.154     (0)  
H(0)          1.321e-17
   H2              6.605e-18   7.079e-18   -17.180   -17.150     0.030     (0)  
Na            3.000e-01
   Na+             3.000e-01   2.200e-01    -0.523    -0.658    -0.135     (0)  
   Na(Edta)-3      1.983e-12   5.998e-15   -11.703   -14.222    -2.519     (0)  
O(0)          0.000e+00
   O2              0.000e+00   0.000e+00   -58.034   -58.004     0.030     (0)  
Zn            2.000e-04
   Zn+2            1.112e-04   3.218e-05    -3.954    -4.492    -0.539     (0)  
   Zn(Edta)-2      4.253e-05   1.231e-05    -4.371    -4.910    -0.539     (0)  
   ZnCl+           2.586e-05   1.778e-05    -4.587    -4.750    -0.163     (0)  
   ZnH(Edta)-      1.218e-05   8.935e-06    -4.914    -5.049    -0.135     (0)  
   ZnCl2           6.200e-06   6.200e-06    -5.208    -5.208     0.000     (0)  
   ZnCl3-          1.575e-06   1.083e-06    -5.803    -5.965    -0.163     (0)  
   ZnCl4-2         4.624e-07   1.192e-07    -6.335    -6.924    -0.589     (0)  
   ZnOHCl          2.320e-10   2.320e-10    -9.635    -9.635     0.000     (0)  
   ZnOH+           6.109e-11   3.207e-11   -10.214   -10.494    -0.280     (0)  
   ZnOH(Edta)-3    8.024e-13   4.927e-14   -12.096   -13.307    -1.212     (0)  
   Zn(OH)2         5.065e-17   5.065e-17   -16.295   -16.295     0.000     (0)  
   Zn(OH)3-        4.820e-24   2.530e-24   -23.317   -23.597    -0.280     (0)  
   Zn(OH)4-2       1.322e-32   1.004e-33   -31.879   -32.998    -1.120     (0)  

------------------------------Saturation indices-------------------------------

  Phase               SI** log IAP   log K(298 K,   1 atm)

  Halite           -2.92     -1.32    1.60  NaCl
  O2(g)           -55.10     27.99   83.09  O2
  Zincite          -9.83      1.50   11.33  ZnO
  Zn(OH)2         -10.70      1.50   12.20  Zn(OH)2
  Zn(OH)2(am)     -10.98      1.50   12.47  Zn(OH)2
  Zn(OH)2(beta)   -10.26      1.50   11.75  Zn(OH)2
  Zn(OH)2(epsilon) -10.04      1.50   11.53  Zn(OH)2
  Zn(OH)2(gamma)  -10.24      1.50   11.73  Zn(OH)2
  Zn2(OH)3Cl      -15.85     -0.66   15.19  Zn2(OH)3Cl
  Zn5(OH)8Cl2     -38.31      0.19   38.50  Zn5(OH)8Cl2
  ZnCl2           -12.86     -5.81    7.05  ZnCl2
  Znmetal         -38.28    -12.49   25.79  Zn
  ZnO(active)      -9.69      1.50   11.19  ZnO

**For a gas, SI = log10(fugacity). Fugacity = pressure * phi / 1 atm.
  For ideal gases, phi = 1.

------------------
End of simulation.
------------------

------------------------------------
Reading input data for simulation 4.
------------------------------------

	SOLUTION 2
	pH		3.2
	Cl		0.3		mol/kgw
	Na		0.3		mol/kgw
	Zn	0.200 	mmol/kgw
	Edta  0.200 	mmol/kgw
	END
-------------------------------------------
Beginning of initial solution calculations.
-------------------------------------------

Initial solution 2.	

-----------------------------Solution composition------------------------------

	Elements           Molality       Moles

	Cl                3.000e-01   3.000e-01
	Edta              2.000e-04   2.000e-04
	Na                3.000e-01   3.000e-01
	Zn                2.000e-04   2.000e-04

----------------------------Description of solution----------------------------

                                       pH  =   3.200    
                                       pe  =   4.000    
                        Activity of water  =   0.990
                 Ionic strength (mol/kgw)  =   3.010e-01
                       Mass of water (kg)  =   1.000e+00
                 Total alkalinity (eq/kg)  =  -7.152e-04
                         Temperature (°C)  =  25.00
                  Electrical balance (eq)  =   7.152e-04
 Percent error, 100*(Cat-|An|)/(Cat+|An|)  =   0.12
                               Iterations  =   9
                                  Total H  = 1.110148e+02
                                  Total O  = 5.550683e+01

----------------------------Distribution of species----------------------------

                                               Log       Log       Log    mole V
   Species          Molality    Activity  Molality  Activity     Gamma   cm³/mol

   H+              8.603e-04   6.310e-04    -3.065    -3.200    -0.135      0.00
   OH-             2.345e-11   1.580e-11   -10.630   -10.801    -0.172     (0)  
   H2O             5.551e+01   9.898e-01     1.744    -0.004     0.000     18.07
Cl            3.000e-01
   Cl-             3.000e-01   2.200e-01    -0.523    -0.658    -0.135     (0)  
   ZnCl+           2.054e-05   1.412e-05    -4.687    -4.850    -0.163     (0)  
   ZnCl2           4.924e-06   4.924e-06    -5.308    -5.308     0.000     (0)  
   ZnCl3-          1.251e-06   8.606e-07    -5.903    -6.065    -0.163     (0)  
   ZnCl4-2         3.673e-07   9.468e-08    -6.435    -7.024    -0.589     (0)  
   ZnOHCl          2.920e-10   2.920e-10    -9.535    -9.535     0.000     (0)  
Edta          2.000e-04
   H2(Edta)-2      1.006e-04   7.643e-06    -3.998    -5.117    -1.119     (0)  
   Zn(Edta)-2      7.166e-05   2.074e-05    -4.145    -4.683    -0.539     (0)  
   ZnH(Edta)-      1.295e-05   9.501e-06    -4.888    -5.022    -0.135     (0)  
   H3(Edta)-       1.208e-05   6.343e-06    -4.918    -5.198    -0.280     (0)  
   H(Edta)-3       2.131e-06   6.461e-09    -5.672    -8.190    -2.518     (0)  
   H4(Edta)        5.785e-07   5.785e-07    -6.238    -6.238     0.000     (0)  
   H5(Edta)+       2.198e-08   1.154e-08    -7.658    -7.938    -0.280     (0)  
   Na(Edta)-3      4.198e-12   1.273e-14   -11.377   -13.895    -2.518     (0)  
   ZnOH(Edta)-3    2.143e-12   1.316e-13   -11.669   -12.881    -1.212     (0)  
   Edta-4          1.646e-14   1.154e-16   -13.784   -15.938    -2.154     (0)  
H(0)          5.259e-18
   H2              2.630e-18   2.818e-18   -17.580   -17.550     0.030     (0)  
Na            3.000e-01
   Na+             3.000e-01   2.200e-01    -0.523    -0.658    -0.135     (0)  
   Na(Edta)-3      4.198e-12   1.273e-14   -11.377   -13.895    -2.518     (0)  
O(0)          0.000e+00
   O2              0.000e+00   0.000e+00   -57.234   -57.204     0.030     (0)  
Zn            2.000e-04
   Zn+2            8.831e-05   2.556e-05    -4.054    -4.593    -0.539     (0)  
   Zn(Edta)-2      7.166e-05   2.074e-05    -4.145    -4.683    -0.539     (0)  
   ZnCl+           2.054e-05   1.412e-05    -4.687    -4.850    -0.163     (0)  
   ZnH(Edta)-      1.295e-05   9.501e-06    -4.888    -5.022    -0.135     (0)  
   ZnCl2           4.924e-06   4.924e-06    -5.308    -5.308     0.000     (0)  
   ZnCl3-          1.251e-06   8.606e-07    -5.903    -6.065    -0.163     (0)  
   ZnCl4-2         3.673e-07   9.468e-08    -6.435    -7.024    -0.589     (0)  
   ZnOHCl          2.920e-10   2.920e-10    -9.535    -9.535     0.000     (0)  
   ZnOH+           7.688e-11   4.037e-11   -10.114   -10.394    -0.280     (0)  
   ZnOH(Edta)-3    2.143e-12   1.316e-13   -11.669   -12.881    -1.212     (0)  
   Zn(OH)2         1.011e-16   1.011e-16   -15.995   -15.995     0.000     (0)  
   Zn(OH)3-        1.524e-23   8.000e-24   -22.817   -23.097    -0.280     (0)  
   Zn(OH)4-2       6.620e-32   5.031e-33   -31.179   -32.298    -1.119     (0)  

------------------------------Saturation indices-------------------------------

  Phase               SI** log IAP   log K(298 K,   1 atm)

  Halite           -2.92     -1.32    1.60  NaCl
  O2(g)           -54.30     28.79   83.09  O2
  Zincite          -9.53      1.80   11.33  ZnO
  Zn(OH)2         -10.40      1.80   12.20  Zn(OH)2
  Zn(OH)2(am)     -10.68      1.80   12.47  Zn(OH)2
  Zn(OH)2(beta)    -9.96      1.80   11.75  Zn(OH)2
  Zn(OH)2(epsilon)  -9.74      1.80   11.53  Zn(OH)2
  Zn(OH)2(gamma)   -9.94      1.80   11.73  Zn(OH)2
  Zn2(OH)3Cl      -15.45     -0.26   15.19  Zn2(OH)3Cl
  Zn5(OH)8Cl2     -37.21      1.29   38.50  Zn5(OH)8Cl2
  ZnCl2           -12.96     -5.91    7.05  ZnCl2
  Znmetal         -38.38    -12.59   25.79  Zn
  ZnO(active)      -9.39      1.80   11.19  ZnO

**For a gas, SI = log10(fugacity). Fugacity = pressure * phi / 1 atm.
  For ideal gases, phi = 1.

------------------
End of simulation.
------------------

------------------------------------
Reading input data for simulation 5.
------------------------------------

	SOLUTION 3
	pH		3.4
	Cl		0.3		mol/kgw
	Na		0.3		mol/kgw
	Zn	0.200 	mmol/kgw
	Edta  0.200 	mmol/kgw
	END
-------------------------------------------
Beginning of initial solution calculations.
-------------------------------------------

Initial solution 3.	

-----------------------------Solution composition------------------------------

	Elements           Molality       Moles

	Cl                3.000e-01   3.000e-01
	Edta              2.000e-04   2.000e-04
	Na                3.000e-01   3.000e-01
	Zn                2.000e-04   2.000e-04

----------------------------Description of solution----------------------------

                                       pH  =   3.400    
                                       pe  =   4.000    
                        Activity of water  =   0.990
                 Ionic strength (mol/kgw)  =   3.008e-01
                       Mass of water (kg)  =   1.000e+00
                 Total alkalinity (eq/kg)  =  -3.295e-04
                         Temperature (°C)  =  25.00
                  Electrical balance (eq)  =   3.295e-04
 Percent error, 100*(Cat-|An|)/(Cat+|An|)  =   0.05
                               Iterations  =  10
                                  Total H  = 1.110144e+02
                                  Total O  = 5.550683e+01

----------------------------Distribution of species----------------------------

                                               Log       Log       Log    mole V
   Species          Molality    Activity  Molality  Activity     Gamma   cm³/mol

   H+              5.428e-04   3.981e-04    -3.265    -3.400    -0.135      0.00
   OH-             3.716e-11   2.503e-11   -10.430   -10.601    -0.172     (0)  
   H2O             5.551e+01   9.898e-01     1.744    -0.004     0.000     18.07
Cl            3.000e-01
   Cl-             3.000e-01   2.200e-01    -0.523    -0.658    -0.135     (0)  
   ZnCl+           1.526e-05   1.049e-05    -4.817    -4.979    -0.163     (0)  
   ZnCl2           3.659e-06   3.659e-06    -5.437    -5.437     0.000     (0)  
   ZnCl3-          9.297e-07   6.394e-07    -6.032    -6.194    -0.163     (0)  
   ZnCl4-2         2.728e-07   7.035e-08    -6.564    -7.153    -0.589     (0)  
   ZnOHCl          3.439e-10   3.439e-10    -9.464    -9.464     0.000     (0)  
Edta          2.000e-04
   Zn(Edta)-2      1.026e-04   2.969e-05    -3.989    -4.527    -0.538     (0)  
   H2(Edta)-2      7.710e-05   5.864e-06    -4.113    -5.232    -1.119     (0)  
   ZnH(Edta)-      1.170e-05   8.582e-06    -4.932    -5.066    -0.135     (0)  
   H3(Edta)-       5.847e-06   3.070e-06    -5.233    -5.513    -0.280     (0)  
   H(Edta)-3       2.586e-06   7.856e-09    -5.587    -8.105    -2.517     (0)  
   H4(Edta)        1.767e-07   1.767e-07    -6.753    -6.753     0.000     (0)  
   H5(Edta)+       4.236e-09   2.224e-09    -8.373    -8.653    -0.280     (0)  
   Na(Edta)-3      8.075e-12   2.453e-14   -11.093   -13.610    -2.517     (0)  
   ZnOH(Edta)-3    4.861e-12   2.986e-13   -11.313   -12.525    -1.212     (0)  
   Edta-4          3.171e-14   2.224e-16   -13.499   -15.653    -2.154     (0)  
H(0)          2.094e-18
   H2              1.047e-18   1.122e-18   -17.980   -17.950     0.030     (0)  
Na            3.000e-01
   Na+             3.000e-01   2.200e-01    -0.523    -0.658    -0.135     (0)  
   Na(Edta)-3      8.075e-12   2.453e-14   -11.093   -13.610    -2.517     (0)  
O(0)          0.000e+00
   O2              0.000e+00   0.000e+00   -56.434   -56.404     0.030     (0)  
Zn            2.000e-04
   Zn(Edta)-2      1.026e-04   2.969e-05    -3.989    -4.527    -0.538     (0)  
   Zn+2            6.560e-05   1.898e-05    -4.183    -4.722    -0.538     (0)  
   ZnCl+           1.526e-05   1.049e-05    -4.817    -4.979    -0.163     (0)  
   ZnH(Edta)-      1.170e-05   8.582e-06    -4.932    -5.066    -0.135     (0)  
   ZnCl2           3.659e-06   3.659e-06    -5.437    -5.437     0.000     (0)  
   ZnCl3-          9.297e-07   6.394e-07    -6.032    -6.194    -0.163     (0)  
   ZnCl4-2         2.728e-07   7.035e-08    -6.564    -7.153    -0.589     (0)  
   ZnOHCl          3.439e-10   3.439e-10    -9.464    -9.464     0.000     (0)  
   ZnOH+           9.050e-11   4.753e-11   -10.043   -10.323    -0.280     (0)  
   ZnOH(Edta)-3    4.861e-12   2.986e-13   -11.313   -12.525    -1.212     (0)  
   Zn(OH)2         1.886e-16   1.886e-16   -15.725   -15.725     0.000     (0)  
   Zn(OH)3-        4.505e-23   2.366e-23   -22.346   -22.626    -0.280     (0)  
   Zn(OH)4-2       3.100e-31   2.358e-32   -30.509   -31.627    -1.119     (0)  

------------------------------Saturation indices-------------------------------

  Phase               SI** log IAP   log K(298 K,   1 atm)

  Halite           -2.92     -1.32    1.60  NaCl
  O2(g)           -53.50     29.59   83.09  O2
  Zincite          -9.26      2.07   11.33  ZnO
  Zn(OH)2         -10.13      2.07   12.20  Zn(OH)2
  Zn(OH)2(am)     -10.40      2.07   12.47  Zn(OH)2
  Zn(OH)2(beta)    -9.68      2.07   11.75  Zn(OH)2
  Zn(OH)2(epsilon)  -9.46      2.07   11.53  Zn(OH)2
  Zn(OH)2(gamma)   -9.66      2.07   11.73  Zn(OH)2
  Zn2(OH)3Cl      -15.11      0.09   15.19  Zn2(OH)3Cl
  Zn5(OH)8Cl2     -36.26      2.24   38.50  Zn5(OH)8Cl2
  ZnCl2           -13.09     -6.04    7.05  ZnCl2
  Znmetal         -38.51    -12.72   25.79  Zn
  ZnO(active)      -9.11      2.07   11.19  ZnO

**For a gas, SI = log10(fugacity). Fugacity = pressure * phi / 1 atm.
  For ideal gases, phi = 1.

------------------
End of simulation.
------------------

------------------------------------
Reading input data for simulation 6.
------------------------------------

	SOLUTION 4
	pH		3.6
	Cl		0.3		mol/kgw
	Na		0.3		mol/kgw
	Zn	0.200 	mmol/kgw
	Edta  0.200 	mmol/kgw
	END
-------------------------------------------
Beginning of initial solution calculations.
-------------------------------------------

Initial solution 4.	

-----------------------------Solution composition------------------------------

	Elements           Molality       Moles

	Cl                3.000e-01   3.000e-01
	Edta              2.000e-04   2.000e-04
	Na                3.000e-01   3.000e-01
	Zn                2.000e-04   2.000e-04

----------------------------Description of solution----------------------------

                                       pH  =   3.600    
                                       pe  =   4.000    
                        Activity of water  =   0.990
                 Ionic strength (mol/kgw)  =   3.006e-01
                       Mass of water (kg)  =   1.000e+00
                 Total alkalinity (eq/kg)  =  -7.285e-05
                         Temperature (°C)  =  25.00
                  Electrical balance (eq)  =   7.285e-05
 Percent error, 100*(Cat-|An|)/(Cat+|An|)  =   0.01
                               Iterations  =   9
                                  Total H  = 1.110141e+02
                                  Total O  = 5.550683e+01

----------------------------Distribution of species----------------------------

                                               Log       Log       Log    mole V
   Species          Molality    Activity  Molality  Activity     Gamma   cm³/mol

   H+              3.425e-04   2.512e-04    -3.465    -3.600    -0.135      0.00
   OH-             5.889e-11   3.968e-11   -10.230   -10.401    -0.172     (0)  
   H2O             5.551e+01   9.898e-01     1.744    -0.004     0.000     18.07
Cl            3.000e-01
   Cl-             3.000e-01   2.200e-01    -0.523    -0.658    -0.135     (0)  
   ZnCl+           1.079e-05   7.419e-06    -4.967    -5.130    -0.163     (0)  
   ZnCl2           2.587e-06   2.587e-06    -5.587    -5.587     0.000     (0)  
   ZnCl3-          6.574e-07   4.522e-07    -6.182    -6.345    -0.163     (0)  
   ZnCl4-2         1.929e-07   4.975e-08    -6.715    -7.303    -0.589     (0)  
   ZnOHCl          3.854e-10   3.854e-10    -9.414    -9.414     0.000     (0)  
Edta          2.000e-04
   Zn(Edta)-2      1.300e-04   3.764e-05    -3.886    -4.424    -0.538     (0)  
   H2(Edta)-2      5.500e-05   4.185e-06    -4.260    -5.378    -1.119     (0)  
   ZnH(Edta)-      9.359e-06   6.864e-06    -5.029    -5.163    -0.135     (0)  
   H(Edta)-3       2.922e-06   8.887e-09    -5.534    -8.051    -2.517     (0)  
   H3(Edta)-       2.633e-06   1.383e-06    -5.580    -5.859    -0.280     (0)  
   H4(Edta)        5.020e-08   5.020e-08    -7.299    -7.299     0.000     (0)  
   H5(Edta)+       7.593e-10   3.988e-10    -9.120    -9.399    -0.280     (0)  
   Na(Edta)-3      1.446e-11   4.398e-14   -10.840   -13.357    -2.517     (0)  
   ZnOH(Edta)-3    9.765e-12   6.000e-13   -11.010   -12.222    -1.212     (0)  
   Edta-4          5.683e-14   3.988e-16   -13.245   -15.399    -2.154     (0)  
H(0)          8.336e-19
   H2              4.168e-19   4.467e-19   -18.380   -18.350     0.030     (0)  
Na            3.000e-01
   Na+             3.000e-01   2.200e-01    -0.523    -0.657    -0.135     (0)  
   Na(Edta)-3      1.446e-11   4.398e-14   -10.840   -13.357    -2.517     (0)  
O(0)          0.000e+00
   O2              0.000e+00   0.000e+00   -55.634   -55.604     0.030     (0)  
Zn            2.000e-04
   Zn(Edta)-2      1.300e-04   3.764e-05    -3.886    -4.424    -0.538     (0)  
   Zn+2            4.638e-05   1.342e-05    -4.334    -4.872    -0.538     (0)  
   ZnCl+           1.079e-05   7.419e-06    -4.967    -5.130    -0.163     (0)  
   ZnH(Edta)-      9.359e-06   6.864e-06    -5.029    -5.163    -0.135     (0)  
   ZnCl2           2.587e-06   2.587e-06    -5.587    -5.587     0.000     (0)  
   ZnCl3-          6.574e-07   4.522e-07    -6.182    -6.345    -0.163     (0)  
   ZnCl4-2         1.929e-07   4.975e-08    -6.715    -7.303    -0.589     (0)  
   ZnOHCl          3.854e-10   3.854e-10    -9.414    -9.414     0.000     (0)  
   ZnOH+           1.014e-10   5.326e-11    -9.994   -10.274    -0.280     (0)  
   ZnOH(Edta)-3    9.765e-12   6.000e-13   -11.010   -12.222    -1.212     (0)  
   Zn(OH)2         3.349e-16   3.349e-16   -15.475   -15.475     0.000     (0)  
   Zn(OH)3-        1.268e-22   6.660e-23   -21.897   -22.177    -0.280     (0)  
   Zn(OH)4-2       1.382e-30   1.052e-31   -29.859   -30.978    -1.119     (0)  

------------------------------Saturation indices-------------------------------

  Phase               SI** log IAP   log K(298 K,   1 atm)

  Halite           -2.92     -1.32    1.60  NaCl
  O2(g)           -52.70     30.39   83.09  O2
  Zincite          -9.01      2.32   11.33  ZnO
  Zn(OH)2          -9.88      2.32   12.20  Zn(OH)2
  Zn(OH)2(am)     -10.16      2.32   12.47  Zn(OH)2
  Zn(OH)2(beta)    -9.44      2.32   11.75  Zn(OH)2
  Zn(OH)2(epsilon)  -9.22      2.32   11.53  Zn(OH)2
  Zn(OH)2(gamma)   -9.42      2.32   11.73  Zn(OH)2
  Zn2(OH)3Cl      -14.81      0.38   15.19  Zn2(OH)3Cl
  Zn5(OH)8Cl2     -35.41      3.09   38.50  Zn5(OH)8Cl2
  ZnCl2           -13.24     -6.19    7.05  ZnCl2
  Znmetal         -38.66    -12.87   25.79  Zn
  ZnO(active)      -8.86      2.32   11.19  ZnO

**For a gas, SI = log10(fugacity). Fugacity = pressure * phi / 1 atm.
  For ideal gases, phi = 1.

------------------
End of simulation.
------------------

------------------------------------
Reading input data for simulation 7.
------------------------------------

	SOLUTION 5
	pH		3.8
	Cl		0.3		mol/kgw
	Na		0.3		mol/kgw
	Zn	0.200 	mmol/kgw
	Edta  0.200 	mmol/kgw
	END
-------------------------------------------
Beginning of initial solution calculations.
-------------------------------------------

Initial solution 5.	

-----------------------------Solution composition------------------------------

	Elements           Molality       Moles

	Cl                3.000e-01   3.000e-01
	Edta              2.000e-04   2.000e-04
	Na                3.000e-01   3.000e-01
	Zn                2.000e-04   2.000e-04

----------------------------Description of solution----------------------------

                                       pH  =   3.800    
                                       pe  =   4.000    
                        Activity of water  =   0.990
                 Ionic strength (mol/kgw)  =   3.006e-01
                       Mass of water (kg)  =   1.000e+00
                 Total alkalinity (eq/kg)  =   9.598e-05
                         Temperature (°C)  =  25.00
                  Electrical balance (eq)  =  -9.598e-05
 Percent error, 100*(Cat-|An|)/(Cat+|An|)  =  -0.02
                               Iterations  =   7
                                  Total H  = 1.110140e+02
                                  Total O  = 5.550683e+01

----------------------------Distribution of species----------------------------

                                               Log       Log       Log    mole V
   Species          Molality    Activity  Molality  Activity     Gamma   cm³/mol

   H+              2.161e-04   1.585e-04    -3.665    -3.800    -0.135      0.00
   OH-             9.334e-11   6.288e-11   -10.030   -10.201    -0.172     (0)  
   H2O             5.551e+01   9.898e-01     1.744    -0.004     0.000     18.07
Cl            3.000e-01
   Cl-             3.000e-01   2.200e-01    -0.523    -0.658    -0.135     (0)  
   ZnCl+           7.390e-06   5.083e-06    -5.131    -5.294    -0.163     (0)  
   ZnCl2           1.773e-06   1.773e-06    -5.751    -5.751     0.000     (0)  
   ZnCl3-          4.504e-07   3.098e-07    -6.346    -6.509    -0.163     (0)  
   ZnCl4-2         1.322e-07   3.409e-08    -6.879    -7.467    -0.589     (0)  
   ZnOHCl          4.185e-10   4.185e-10    -9.378    -9.378     0.000     (0)  
Edta          2.000e-04
   Zn(Edta)-2      1.516e-04   4.388e-05    -3.819    -4.358    -0.538     (0)  
   H2(Edta)-2      3.725e-05   2.835e-06    -4.429    -5.547    -1.118     (0)  
   ZnH(Edta)-      6.884e-06   5.049e-06    -5.162    -5.297    -0.135     (0)  
   H(Edta)-3       3.134e-06   9.542e-09    -5.504    -8.020    -2.517     (0)  
   H3(Edta)-       1.125e-06   5.910e-07    -5.949    -6.228    -0.280     (0)  
   H4(Edta)        1.354e-08   1.354e-08    -7.868    -7.868     0.000     (0)  
   H5(Edta)+       1.292e-10   6.786e-11    -9.889   -10.168    -0.280     (0)  
   Na(Edta)-3      2.458e-11   7.484e-14   -10.609   -13.126    -2.517     (0)  
   ZnOH(Edta)-3    1.804e-11   1.109e-12   -10.744   -11.955    -1.212     (0)  
   Edta-4          9.670e-14   6.786e-16   -13.015   -15.168    -2.154     (0)  
H(0)          3.319e-19
   H2              1.659e-19   1.778e-19   -18.780   -18.750     0.030     (0)  
Na            3.000e-01
   Na+             3.000e-01   2.200e-01    -0.523    -0.657    -0.135     (0)  
   Na(Edta)-3      2.458e-11   7.484e-14   -10.609   -13.126    -2.517     (0)  
O(0)          0.000e+00
   O2              0.000e+00   0.000e+00   -54.834   -54.804     0.030     (0)  
Zn            2.000e-04
   Zn(Edta)-2      1.516e-04   4.388e-05    -3.819    -4.358    -0.538     (0)  
   Zn+2            3.177e-05   9.196e-06    -4.498    -5.036    -0.538     (0)  
   ZnCl+           7.390e-06   5.083e-06    -5.131    -5.294    -0.163     (0)  
   ZnH(Edta)-      6.884e-06   5.049e-06    -5.162    -5.297    -0.135     (0)  
   ZnCl2           1.773e-06   1.773e-06    -5.751    -5.751     0.000     (0)  
   ZnCl3-          4.504e-07   3.098e-07    -6.346    -6.509    -0.163     (0)  
   ZnCl4-2         1.322e-07   3.409e-08    -6.879    -7.467    -0.589     (0)  
   ZnOHCl          4.185e-10   4.185e-10    -9.378    -9.378     0.000     (0)  
   ZnOH+           1.101e-10   5.783e-11    -9.958   -10.238    -0.280     (0)  
   ZnOH(Edta)-3    1.804e-11   1.109e-12   -10.744   -11.955    -1.212     (0)  
   Zn(OH)2         5.764e-16   5.764e-16   -15.239   -15.239     0.000     (0)  
   Zn(OH)3-        3.458e-22   1.817e-22   -21.461   -21.741    -0.280     (0)  
   Zn(OH)4-2       5.974e-30   4.548e-31   -29.224   -30.342    -1.118     (0)  

------------------------------Saturation indices-------------------------------

  Phase               SI** log IAP   log K(298 K,   1 atm)

  Halite           -2.92     -1.32    1.60  NaCl
  O2(g)           -51.90     31.19   83.09  O2
  Zincite          -8.77      2.56   11.33  ZnO
  Zn(OH)2          -9.65      2.55   12.20  Zn(OH)2
  Zn(OH)2(am)      -9.92      2.55   12.47  Zn(OH)2
  Zn(OH)2(beta)    -9.20      2.55   11.75  Zn(OH)2
  Zn(OH)2(epsilon)  -8.98      2.55   11.53  Zn(OH)2
  Zn(OH)2(gamma)   -9.18      2.55   11.73  Zn(OH)2
  Zn2(OH)3Cl      -14.53      0.66   15.19  Zn2(OH)3Cl
  Zn5(OH)8Cl2     -34.63      3.87   38.50  Zn5(OH)8Cl2
  ZnCl2           -13.40     -6.35    7.05  ZnCl2
  Znmetal         -38.82    -13.04   25.79  Zn
  ZnO(active)      -8.63      2.56   11.19  ZnO

**For a gas, SI = log10(fugacity). Fugacity = pressure * phi / 1 atm.
  For ideal gases, phi = 1.

------------------
End of simulation.
------------------

------------------------------------
Reading input data for simulation 8.
------------------------------------

	SOLUTION 6
	pH		4.0
	Cl		0.3		mol/kgw
	Na		0.3		mol/kgw
	Zn	0.200 	mmol/kgw
	Edta  0.200 	mmol/kgw
	END
-------------------------------------------
Beginning of initial solution calculations.
-------------------------------------------

Initial solution 6.	

-----------------------------Solution composition------------------------------

	Elements           Molality       Moles

	Cl                3.000e-01   3.000e-01
	Edta              2.000e-04   2.000e-04
	Na                3.000e-01   3.000e-01
	Zn                2.000e-04   2.000e-04

----------------------------Description of solution----------------------------

                                       pH  =   4.000    
                                       pe  =   4.000    
                        Activity of water  =   0.990
                 Ionic strength (mol/kgw)  =   3.005e-01
                       Mass of water (kg)  =   1.000e+00
                 Total alkalinity (eq/kg)  =   2.057e-04
                         Temperature (°C)  =  25.00
                  Electrical balance (eq)  =  -2.057e-04
 Percent error, 100*(Cat-|An|)/(Cat+|An|)  =  -0.03
                               Iterations  =   9
                                  Total H  = 1.110139e+02
                                  Total O  = 5.550683e+01

----------------------------Distribution of species----------------------------

                                               Log       Log       Log    mole V
   Species          Molality    Activity  Molality  Activity     Gamma   cm³/mol

   H+              1.363e-04   1.000e-04    -3.865    -4.000    -0.135      0.00
   OH-             1.479e-10   9.967e-11    -9.830   -10.001    -0.171     (0)  
   H2O             5.551e+01   9.898e-01     1.744    -0.004     0.000     18.07
Cl            3.000e-01
   Cl-             3.000e-01   2.200e-01    -0.523    -0.658    -0.135     (0)  
   ZnCl+           4.979e-06   3.425e-06    -5.303    -5.465    -0.163     (0)  
   ZnCl2           1.194e-06   1.194e-06    -5.923    -5.923     0.000     (0)  
   ZnCl3-          3.035e-07   2.087e-07    -6.518    -6.680    -0.163     (0)  
   ZnCl4-2         8.905e-08   2.297e-08    -7.050    -7.639    -0.588     (0)  
   ZnOHCl          4.469e-10   4.469e-10    -9.350    -9.350     0.000     (0)  
Edta          2.000e-04
   Zn(Edta)-2      1.672e-04   4.840e-05    -3.777    -4.315    -0.538     (0)  
   H2(Edta)-2      2.427e-05   1.848e-06    -4.615    -5.733    -1.118     (0)  
   ZnH(Edta)-      4.792e-06   3.515e-06    -5.320    -5.454    -0.135     (0)  
   H(Edta)-3       3.236e-06   9.857e-09    -5.490    -8.006    -2.516     (0)  
   H3(Edta)-       4.627e-07   2.431e-07    -6.335    -6.614    -0.280     (0)  
   H4(Edta)        3.514e-09   3.514e-09    -8.454    -8.454     0.000     (0)  
   Na(Edta)-3      4.023e-11   1.225e-13   -10.395   -12.912    -2.516     (0)  
   ZnOH(Edta)-3    3.154e-11   1.938e-12   -10.501   -11.713    -1.212     (0)  
   H5(Edta)+       2.115e-11   1.111e-11   -10.675   -10.954    -0.280     (0)  
   Edta-4          1.583e-13   1.111e-15   -12.800   -14.954    -2.154     (0)  
H(0)          1.321e-19
   H2              6.606e-20   7.079e-20   -19.180   -19.150     0.030     (0)  
Na            3.000e-01
   Na+             3.000e-01   2.200e-01    -0.523    -0.657    -0.135     (0)  
   Na(Edta)-3      4.023e-11   1.225e-13   -10.395   -12.912    -2.516     (0)  
O(0)          0.000e+00
   O2              0.000e+00   0.000e+00   -54.034   -54.004     0.030     (0)  
Zn            2.000e-04
   Zn(Edta)-2      1.672e-04   4.840e-05    -3.777    -4.315    -0.538     (0)  
   Zn+2            2.141e-05   6.196e-06    -4.669    -5.208    -0.538     (0)  
   ZnCl+           4.979e-06   3.425e-06    -5.303    -5.465    -0.163     (0)  
   ZnH(Edta)-      4.792e-06   3.515e-06    -5.320    -5.454    -0.135     (0)  
   ZnCl2           1.194e-06   1.194e-06    -5.923    -5.923     0.000     (0)  
   ZnCl3-          3.035e-07   2.087e-07    -6.518    -6.680    -0.163     (0)  
   ZnCl4-2         8.905e-08   2.297e-08    -7.050    -7.639    -0.588     (0)  
   ZnOHCl          4.469e-10   4.469e-10    -9.350    -9.350     0.000     (0)  
   ZnOH+           1.176e-10   6.176e-11    -9.930   -10.209    -0.280     (0)  
   ZnOH(Edta)-3    3.154e-11   1.938e-12   -10.501   -11.713    -1.212     (0)  
   Zn(OH)2         9.755e-16   9.755e-16   -15.011   -15.011     0.000     (0)  
   Zn(OH)3-        9.276e-22   4.873e-22   -21.033   -21.312    -0.280     (0)  
   Zn(OH)4-2       2.539e-29   1.933e-30   -28.595   -29.714    -1.118     (0)  

------------------------------Saturation indices-------------------------------

  Phase               SI** log IAP   log K(298 K,   1 atm)

  Halite           -2.92     -1.31    1.60  NaCl
  O2(g)           -51.10     31.99   83.09  O2
  Zincite          -8.55      2.79   11.33  ZnO
  Zn(OH)2          -9.42      2.78   12.20  Zn(OH)2
  Zn(OH)2(am)      -9.69      2.78   12.47  Zn(OH)2
  Zn(OH)2(beta)    -8.97      2.78   11.75  Zn(OH)2
  Zn(OH)2(epsilon)  -8.75      2.78   11.53  Zn(OH)2
  Zn(OH)2(gamma)   -8.95      2.78   11.73  Zn(OH)2
  Zn2(OH)3Cl      -14.28      0.91   15.19  Zn2(OH)3Cl
  Zn5(OH)8Cl2     -33.89      4.61   38.50  Zn5(OH)8Cl2
  ZnCl2           -13.57     -6.52    7.05  ZnCl2
  Znmetal         -39.00    -13.21   25.79  Zn
  ZnO(active)      -8.40      2.79   11.19  ZnO

**For a gas, SI = log10(fugacity). Fugacity = pressure * phi / 1 atm.
  For ideal gases, phi = 1.

------------------
End of simulation.
------------------

------------------------------------
Reading input data for simulation 9.
------------------------------------

	SOLUTION 7
	pH		4.2
	Cl		0.3		mol/kgw
	Na		0.3		mol/kgw
	Zn	0.200 	mmol/kgw
	Edta  0.200 	mmol/kgw
	END
-------------------------------------------
Beginning of initial solution calculations.
-------------------------------------------

Initial solution 7.	

-----------------------------Solution composition------------------------------

	Elements           Molality       Moles

	Cl                3.000e-01   3.000e-01
	Edta              2.000e-04   2.000e-04
	Na                3.000e-01   3.000e-01
	Zn                2.000e-04   2.000e-04

----------------------------Description of solution----------------------------

                                       pH  =   4.200    
                                       pe  =   4.000    
                        Activity of water  =   0.990
                 Ionic strength (mol/kgw)  =   3.005e-01
                       Mass of water (kg)  =   1.000e+00
                 Total alkalinity (eq/kg)  =   2.763e-04
                         Temperature (°C)  =  25.00
                  Electrical balance (eq)  =  -2.763e-04
 Percent error, 100*(Cat-|An|)/(Cat+|An|)  =  -0.05
                               Iterations  =   9
                                  Total H  = 1.110138e+02
                                  Total O  = 5.550683e+01

----------------------------Distribution of species----------------------------

                                               Log       Log       Log    mole V
   Species          Molality    Activity  Molality  Activity     Gamma   cm³/mol

   H+              8.602e-05   6.310e-05    -4.065    -4.200    -0.135      0.00
   OH-             2.344e-10   1.580e-10    -9.630    -9.801    -0.171     (0)  
   H2O             5.551e+01   9.898e-01     1.744    -0.004     0.000     18.07
Cl            3.000e-01
   Cl-             3.000e-01   2.200e-01    -0.523    -0.657    -0.135     (0)  
   ZnCl+           3.339e-06   2.297e-06    -5.476    -5.639    -0.163     (0)  
   ZnCl2           8.010e-07   8.010e-07    -6.096    -6.096     0.000     (0)  
   ZnCl3-          2.035e-07   1.400e-07    -6.691    -6.854    -0.163     (0)  
   ZnCl4-2         5.972e-08   1.540e-08    -7.224    -7.812    -0.588     (0)  
   ZnOHCl          4.750e-10   4.750e-10    -9.323    -9.323     0.000     (0)  
Edta          2.000e-04
   Zn(Edta)-2      1.780e-04   5.153e-05    -3.750    -4.288    -0.538     (0)  
   H2(Edta)-2      1.534e-05   1.168e-06    -4.814    -5.933    -1.118     (0)  
   H(Edta)-3       3.240e-06   9.872e-09    -5.489    -8.006    -2.516     (0)  
   ZnH(Edta)-      3.218e-06   2.361e-06    -5.492    -5.627    -0.135     (0)  
   H3(Edta)-       1.845e-07   9.692e-08    -6.734    -7.014    -0.280     (0)  
   H4(Edta)        8.839e-10   8.839e-10    -9.054    -9.054     0.000     (0)  
   Na(Edta)-3      6.384e-11   1.945e-13   -10.195   -12.711    -2.516     (0)  
   ZnOH(Edta)-3    5.322e-11   3.270e-12   -10.274   -11.485    -1.211     (0)  
   H5(Edta)+       3.357e-12   1.764e-12   -11.474   -11.754    -0.280     (0)  
   Edta-4          2.513e-13   1.764e-15   -12.600   -14.754    -2.154     (0)  
H(0)          5.260e-20
   H2              2.630e-20   2.818e-20   -19.580   -19.550     0.030     (0)  
Na            3.000e-01
   Na+             3.000e-01   2.200e-01    -0.523    -0.657    -0.135     (0)  
   Na(Edta)-3      6.384e-11   1.945e-13   -10.195   -12.711    -2.516     (0)  
O(0)          0.000e+00
   O2              0.000e+00   0.000e+00   -53.234   -53.204     0.030     (0)  
Zn            2.000e-04
   Zn(Edta)-2      1.780e-04   5.153e-05    -3.750    -4.288    -0.538     (0)  
   Zn+2            1.436e-05   4.156e-06    -4.843    -5.381    -0.538     (0)  
   ZnCl+           3.339e-06   2.297e-06    -5.476    -5.639    -0.163     (0)  
   ZnH(Edta)-      3.218e-06   2.361e-06    -5.492    -5.627    -0.135     (0)  
   ZnCl2           8.010e-07   8.010e-07    -6.096    -6.096     0.000     (0)  
   ZnCl3-          2.035e-07   1.400e-07    -6.691    -6.854    -0.163     (0)  
   ZnCl4-2         5.972e-08   1.540e-08    -7.224    -7.812    -0.588     (0)  
   ZnOHCl          4.750e-10   4.750e-10    -9.323    -9.323     0.000     (0)  
   ZnOH+           1.250e-10   6.564e-11    -9.903   -10.183    -0.280     (0)  
   ZnOH(Edta)-3    5.322e-11   3.270e-12   -10.274   -11.485    -1.211     (0)  
   Zn(OH)2         1.643e-15   1.643e-15   -14.784   -14.784     0.000     (0)  
   Zn(OH)3-        2.476e-21   1.301e-21   -20.606   -20.886    -0.280     (0)  
   Zn(OH)4-2       1.074e-28   8.181e-30   -27.969   -29.087    -1.118     (0)  

------------------------------Saturation indices-------------------------------

  Phase               SI** log IAP   log K(298 K,   1 atm)

  Halite           -2.92     -1.31    1.60  NaCl
  O2(g)           -50.30     32.79   83.09  O2
  Zincite          -8.32      3.01   11.33  ZnO
  Zn(OH)2          -9.19      3.01   12.20  Zn(OH)2
  Zn(OH)2(am)      -9.46      3.01   12.47  Zn(OH)2
  Zn(OH)2(beta)    -8.74      3.01   11.75  Zn(OH)2
  Zn(OH)2(epsilon)  -8.52      3.01   11.53  Zn(OH)2
  Zn(OH)2(gamma)   -8.72      3.01   11.73  Zn(OH)2
  Zn2(OH)3Cl      -14.02      1.17   15.19  Zn2(OH)3Cl
  Zn5(OH)8Cl2     -33.16      5.34   38.50  Zn5(OH)8Cl2
  ZnCl2           -13.75     -6.70    7.05  ZnCl2
  Znmetal         -39.17    -13.38   25.79  Zn
  ZnO(active)      -8.17      3.01   11.19  ZnO

**For a gas, SI = log10(fugacity). Fugacity = pressure * phi / 1 atm.
  For ideal gases, phi = 1.

------------------
End of simulation.
------------------

-------------------------------------
Reading input data for simulation 10.
-------------------------------------

	SOLUTION 8
	pH		4.4
	Cl		0.3		mol/kgw
	Na		0.3		mol/kgw
	Zn	0.200 	mmol/kgw
	Edta  0.200 	mmol/kgw
	END
-------------------------------------------
Beginning of initial solution calculations.
-------------------------------------------

Initial solution 8.	

-----------------------------Solution composition------------------------------

	Elements           Molality       Moles

	Cl                3.000e-01   3.000e-01
	Edta              2.000e-04   2.000e-04
	Na                3.000e-01   3.000e-01
	Zn                2.000e-04   2.000e-04

----------------------------Description of solution----------------------------

                                       pH  =   4.400    
                                       pe  =   4.000    
                        Activity of water  =   0.990
                 Ionic strength (mol/kgw)  =   3.005e-01
                       Mass of water (kg)  =   1.000e+00
                 Total alkalinity (eq/kg)  =   3.214e-04
                         Temperature (°C)  =  25.00
                  Electrical balance (eq)  =  -3.214e-04
 Percent error, 100*(Cat-|An|)/(Cat+|An|)  =  -0.05
                               Iterations  =   9
                                  Total H  = 1.110137e+02
                                  Total O  = 5.550683e+01

----------------------------Distribution of species----------------------------

                                               Log       Log       Log    mole V
   Species          Molality    Activity  Molality  Activity     Gamma   cm³/mol

   H+              5.428e-05   3.981e-05    -4.265    -4.400    -0.135      0.00
   OH-             3.716e-10   2.503e-10    -9.430    -9.601    -0.171     (0)  
   H2O             5.551e+01   9.898e-01     1.744    -0.004     0.000     18.07
Cl            3.000e-01
   Cl-             3.000e-01   2.200e-01    -0.523    -0.657    -0.135     (0)  
   ZnCl+           2.251e-06   1.548e-06    -5.648    -5.810    -0.163     (0)  
   ZnCl2           5.400e-07   5.400e-07    -6.268    -6.268     0.000     (0)  
   ZnCl3-          1.372e-07   9.439e-08    -6.863    -7.025    -0.163     (0)  
   ZnCl4-2         4.026e-08   1.039e-08    -7.395    -7.984    -0.588     (0)  
   ZnOHCl          5.075e-10   5.075e-10    -9.295    -9.295     0.000     (0)  
Edta          2.000e-04
   Zn(Edta)-2      1.852e-04   5.362e-05    -3.732    -4.271    -0.538     (0)  
   H2(Edta)-2      9.422e-06   7.176e-07    -5.026    -6.144    -1.118     (0)  
   H(Edta)-3       3.155e-06   9.614e-09    -5.501    -8.017    -2.516     (0)  
   ZnH(Edta)-      2.113e-06   1.550e-06    -5.675    -5.810    -0.135     (0)  
   H3(Edta)-       7.152e-08   3.757e-08    -7.146    -7.425    -0.280     (0)  
   H4(Edta)        2.162e-10   2.162e-10    -9.665    -9.665     0.000     (0)  
   Na(Edta)-3      9.851e-11   3.002e-13   -10.007   -12.523    -2.516     (0)  
   ZnOH(Edta)-3    8.776e-11   5.393e-12   -10.057   -11.268    -1.211     (0)  
   H5(Edta)+       5.182e-13   2.722e-13   -12.286   -12.565    -0.280     (0)  
   Edta-4          3.878e-13   2.722e-15   -12.411   -14.565    -2.154     (0)  
H(0)          2.094e-20
   H2              1.047e-20   1.122e-20   -19.980   -19.950     0.030     (0)  
Na            3.000e-01
   Na+             3.000e-01   2.200e-01    -0.523    -0.657    -0.135     (0)  
   Na(Edta)-3      9.851e-11   3.002e-13   -10.007   -12.523    -2.516     (0)  
O(0)          0.000e+00
   O2              0.000e+00   0.000e+00   -52.434   -52.404     0.030     (0)  
Zn            2.000e-04
   Zn(Edta)-2      1.852e-04   5.362e-05    -3.732    -4.271    -0.538     (0)  
   Zn+2            9.679e-06   2.802e-06    -5.014    -5.553    -0.538     (0)  
   ZnCl+           2.251e-06   1.548e-06    -5.648    -5.810    -0.163     (0)  
   ZnH(Edta)-      2.113e-06   1.550e-06    -5.675    -5.810    -0.135     (0)  
   ZnCl2           5.400e-07   5.400e-07    -6.268    -6.268     0.000     (0)  
   ZnCl3-          1.372e-07   9.439e-08    -6.863    -7.025    -0.163     (0)  
   ZnCl4-2         4.026e-08   1.039e-08    -7.395    -7.984    -0.588     (0)  
   ZnOHCl          5.075e-10   5.075e-10    -9.295    -9.295     0.000     (0)  
   ZnOH+           1.335e-10   7.014e-11    -9.874   -10.154    -0.280     (0)  
   ZnOH(Edta)-3    8.776e-11   5.393e-12   -10.057   -11.268    -1.211     (0)  
   Zn(OH)2         2.783e-15   2.783e-15   -14.556   -14.556     0.000     (0)  
   Zn(OH)3-        6.647e-21   3.492e-21   -20.177   -20.457    -0.280     (0)  
   Zn(OH)4-2       4.569e-28   3.480e-29   -27.340   -28.458    -1.118     (0)  

------------------------------Saturation indices-------------------------------

  Phase               SI** log IAP   log K(298 K,   1 atm)

  Halite           -2.92     -1.31    1.60  NaCl
  O2(g)           -49.50     33.59   83.09  O2
  Zincite          -8.09      3.24   11.33  ZnO
  Zn(OH)2          -8.96      3.24   12.20  Zn(OH)2
  Zn(OH)2(am)      -9.24      3.24   12.47  Zn(OH)2
  Zn(OH)2(beta)    -8.52      3.24   11.75  Zn(OH)2
  Zn(OH)2(epsilon)  -8.30      3.24   11.53  Zn(OH)2
  Zn(OH)2(gamma)   -8.50      3.24   11.73  Zn(OH)2
  Zn2(OH)3Cl      -13.77      1.42   15.19  Zn2(OH)3Cl
  Zn5(OH)8Cl2     -32.41      6.09   38.50  Zn5(OH)8Cl2
  ZnCl2           -13.92     -6.87    7.05  ZnCl2
  Znmetal         -39.34    -13.55   25.79  Zn
  ZnO(active)      -7.95      3.24   11.19  ZnO

**For a gas, SI = log10(fugacity). Fugacity = pressure * phi / 1 atm.
  For ideal gases, phi = 1.

------------------
End of simulation.
------------------

-------------------------------------
Reading input data for simulation 11.
-------------------------------------

	SOLUTION 9
	pH		4.6
	Cl		0.3		mol/kgw
	Na		0.3		mol/kgw
	Zn	0.200 	mmol/kgw
	Edta  0.200 	mmol/kgw
	END
-------------------------------------------
Beginning of initial solution calculations.
-------------------------------------------

Initial solution 9.	

-----------------------------Solution composition------------------------------

	Elements           Molality       Moles

	Cl                3.000e-01   3.000e-01
	Edta              2.000e-04   2.000e-04
	Na                3.000e-01   3.000e-01
	Zn                2.000e-04   2.000e-04

----------------------------Description of solution----------------------------

                                       pH  =   4.600    
                                       pe  =   4.000    
                        Activity of water  =   0.990
                 Ionic strength (mol/kgw)  =   3.004e-01
                       Mass of water (kg)  =   1.000e+00
                 Total alkalinity (eq/kg)  =   3.501e-04
                         Temperature (°C)  =  25.00
                  Electrical balance (eq)  =  -3.501e-04
 Percent error, 100*(Cat-|An|)/(Cat+|An|)  =  -0.06
                               Iterations  =   9
                                  Total H  = 1.110137e+02
                                  Total O  = 5.550683e+01

----------------------------Distribution of species----------------------------

                                               Log       Log       Log    mole V
   Species          Molality    Activity  Molality  Activity     Gamma   cm³/mol

   H+              3.425e-05   2.512e-05    -4.465    -4.600    -0.135      0.00
   OH-             5.889e-10   3.968e-10    -9.230    -9.401    -0.171     (0)  
   H2O             5.551e+01   9.898e-01     1.744    -0.004     0.000     18.07
Cl            3.000e-01
   Cl-             3.000e-01   2.200e-01    -0.523    -0.657    -0.135     (0)  
   ZnCl+           1.538e-06   1.058e-06    -5.813    -5.975    -0.163     (0)  
   ZnCl2           3.690e-07   3.690e-07    -6.433    -6.433     0.000     (0)  
   ZnCl3-          9.378e-08   6.450e-08    -7.028    -7.190    -0.163     (0)  
   ZnCl4-2         2.751e-08   7.097e-09    -7.560    -8.149    -0.588     (0)  
   ZnOHCl          5.497e-10   5.497e-10    -9.260    -9.260     0.000     (0)  
Edta          2.000e-04
   Zn(Edta)-2      1.900e-04   5.499e-05    -3.721    -4.260    -0.538     (0)  
   H2(Edta)-2      5.629e-06   4.288e-07    -5.250    -6.368    -1.118     (0)  
   H(Edta)-3       2.987e-06   9.104e-09    -5.525    -8.041    -2.516     (0)  
   ZnH(Edta)-      1.367e-06   1.003e-06    -5.864    -5.999    -0.135     (0)  
   H3(Edta)-       2.697e-08   1.417e-08    -7.569    -7.849    -0.280     (0)  
   Na(Edta)-3      1.478e-10   4.506e-13    -9.830   -12.346    -2.516     (0)  
   ZnOH(Edta)-3    1.427e-10   8.767e-12    -9.846   -11.057    -1.211     (0)  
   H4(Edta)        5.143e-11   5.143e-11   -10.289   -10.289     0.000     (0)  
   Edta-4          5.821e-13   4.086e-15   -12.235   -14.389    -2.154     (0)  
   H5(Edta)+       7.777e-14   4.086e-14   -13.109   -13.389    -0.280     (0)  
H(0)          8.337e-21
   H2              4.168e-21   4.467e-21   -20.380   -20.350     0.030     (0)  
Na            3.000e-01
   Na+             3.000e-01   2.200e-01    -0.523    -0.657    -0.135     (0)  
   Na(Edta)-3      1.478e-10   4.506e-13    -9.830   -12.346    -2.516     (0)  
O(0)          0.000e+00
   O2              0.000e+00   0.000e+00   -51.634   -51.604     0.030     (0)  
Zn            2.000e-04
   Zn(Edta)-2      1.900e-04   5.499e-05    -3.721    -4.260    -0.538     (0)  
   Zn+2            6.614e-06   1.914e-06    -5.180    -5.718    -0.538     (0)  
   ZnCl+           1.538e-06   1.058e-06    -5.813    -5.975    -0.163     (0)  
   ZnH(Edta)-      1.367e-06   1.003e-06    -5.864    -5.999    -0.135     (0)  
   ZnCl2           3.690e-07   3.690e-07    -6.433    -6.433     0.000     (0)  
   ZnCl3-          9.378e-08   6.450e-08    -7.028    -7.190    -0.163     (0)  
   ZnCl4-2         2.751e-08   7.097e-09    -7.560    -8.149    -0.588     (0)  
   ZnOHCl          5.497e-10   5.497e-10    -9.260    -9.260     0.000     (0)  
   ZnOH+           1.446e-10   7.596e-11    -9.840   -10.119    -0.280     (0)  
   ZnOH(Edta)-3    1.427e-10   8.767e-12    -9.846   -11.057    -1.211     (0)  
   Zn(OH)2         4.777e-15   4.777e-15   -14.321   -14.321     0.000     (0)  
   Zn(OH)3-        1.808e-20   9.499e-21   -19.743   -20.022    -0.280     (0)  
   Zn(OH)4-2       1.970e-27   1.500e-28   -26.706   -27.824    -1.118     (0)  

------------------------------Saturation indices-------------------------------

  Phase               SI** log IAP   log K(298 K,   1 atm)

  Halite           -2.92     -1.31    1.60  NaCl
  O2(g)           -48.70     34.39   83.09  O2
  Zincite          -7.86      3.48   11.33  ZnO
  Zn(OH)2          -8.73      3.47   12.20  Zn(OH)2
  Zn(OH)2(am)      -9.00      3.47   12.47  Zn(OH)2
  Zn(OH)2(beta)    -8.28      3.47   11.75  Zn(OH)2
  Zn(OH)2(epsilon)  -8.06      3.47   11.53  Zn(OH)2
  Zn(OH)2(gamma)   -8.26      3.47   11.73  Zn(OH)2
  Zn2(OH)3Cl      -13.50      1.69   15.19  Zn2(OH)3Cl
  Zn5(OH)8Cl2     -31.64      6.86   38.50  Zn5(OH)8Cl2
  ZnCl2           -14.08     -7.03    7.05  ZnCl2
  Znmetal         -39.51    -13.72   25.79  Zn
  ZnO(active)      -7.71      3.48   11.19  ZnO

**For a gas, SI = log10(fugacity). Fugacity = pressure * phi / 1 atm.
  For ideal gases, phi = 1.

------------------
End of simulation.
------------------

-------------------------------------
Reading input data for simulation 12.
-------------------------------------

	SOLUTION 10
	pH		4.8
	Cl		0.3		mol/kgw
	Na		0.3		mol/kgw
	Zn	0.200 	mmol/kgw
	Edta  0.200 	mmol/kgw
	END
-------------------------------------------
Beginning of initial solution calculations.
-------------------------------------------

Initial solution 10.	

-----------------------------Solution composition------------------------------

	Elements           Molality       Moles

	Cl                3.000e-01   3.000e-01
	Edta              2.000e-04   2.000e-04
	Na                3.000e-01   3.000e-01
	Zn                2.000e-04   2.000e-04

----------------------------Description of solution----------------------------

                                       pH  =   4.800    
                                       pe  =   4.000    
                        Activity of water  =   0.990
                 Ionic strength (mol/kgw)  =   3.004e-01
                       Mass of water (kg)  =   1.000e+00
                 Total alkalinity (eq/kg)  =   3.682e-04
                         Temperature (°C)  =  25.00
                  Electrical balance (eq)  =  -3.682e-04
 Percent error, 100*(Cat-|An|)/(Cat+|An|)  =  -0.06
                               Iterations  =   7
                                  Total H  = 1.110137e+02
                                  Total O  = 5.550683e+01

----------------------------Distribution of species----------------------------

                                               Log       Log       Log    mole V
   Species          Molality    Activity  Molality  Activity     Gamma   cm³/mol

   H+              2.161e-05   1.585e-05    -4.665    -4.800    -0.135      0.00
   OH-             9.333e-10   6.288e-10    -9.030    -9.201    -0.171     (0)  
   H2O             5.551e+01   9.898e-01     1.744    -0.004     0.000     18.07
Cl            3.000e-01
   Cl-             3.000e-01   2.200e-01    -0.523    -0.657    -0.135     (0)  
   ZnCl+           1.072e-06   7.376e-07    -5.970    -6.132    -0.163     (0)  
   ZnCl2           2.572e-07   2.572e-07    -6.590    -6.590     0.000     (0)  
   ZnCl3-          6.537e-08   4.496e-08    -7.185    -7.347    -0.163     (0)  
   ZnCl4-2         1.918e-08   4.947e-09    -7.717    -8.306    -0.588     (0)  
   ZnOHCl          6.073e-10   6.073e-10    -9.217    -9.217     0.000     (0)  
Edta          2.000e-04
   Zn(Edta)-2      1.931e-04   5.589e-05    -3.714    -4.253    -0.538     (0)  
   H2(Edta)-2      3.268e-06   2.489e-07    -5.486    -6.604    -1.118     (0)  
   H(Edta)-3       2.748e-06   8.376e-09    -5.561    -8.077    -2.516     (0)  
   ZnH(Edta)-      8.769e-07   6.432e-07    -6.057    -6.192    -0.135     (0)  
   H3(Edta)-       9.876e-09   5.188e-09    -8.005    -8.285    -0.280     (0)  
   ZnOH(Edta)-3    2.298e-10   1.412e-11    -9.639   -10.850    -1.211     (0)  
   Na(Edta)-3      2.155e-10   6.570e-13    -9.667   -12.182    -2.516     (0)  
   H4(Edta)        1.189e-11   1.189e-11   -10.925   -10.925     0.000     (0)  
   Edta-4          8.487e-13   5.957e-15   -12.071   -14.225    -2.154     (0)  
   H5(Edta)+       1.134e-14   5.957e-15   -13.945   -14.225    -0.280     (0)  
H(0)          3.319e-21
   H2              1.659e-21   1.778e-21   -20.780   -20.750     0.030     (0)  
Na            3.000e-01
   Na+             3.000e-01   2.200e-01    -0.523    -0.657    -0.135     (0)  
   Na(Edta)-3      2.155e-10   6.570e-13    -9.667   -12.182    -2.516     (0)  
O(0)          0.000e+00
   O2              0.000e+00   0.000e+00   -50.834   -50.804     0.030     (0)  
Zn            2.000e-04
   Zn(Edta)-2      1.931e-04   5.589e-05    -3.714    -4.253    -0.538     (0)  
   Zn+2            4.611e-06   1.335e-06    -5.336    -5.875    -0.538     (0)  
   ZnCl+           1.072e-06   7.376e-07    -5.970    -6.132    -0.163     (0)  
   ZnH(Edta)-      8.769e-07   6.432e-07    -6.057    -6.192    -0.135     (0)  
   ZnCl2           2.572e-07   2.572e-07    -6.590    -6.590     0.000     (0)  
   ZnCl3-          6.537e-08   4.496e-08    -7.185    -7.347    -0.163     (0)  
   ZnCl4-2         1.918e-08   4.947e-09    -7.717    -8.306    -0.588     (0)  
   ZnOHCl          6.073e-10   6.073e-10    -9.217    -9.217     0.000     (0)  
   ZnOH(Edta)-3    2.298e-10   1.412e-11    -9.639   -10.850    -1.211     (0)  
   ZnOH+           1.597e-10   8.392e-11    -9.797   -10.076    -0.280     (0)  
   Zn(OH)2         8.364e-15   8.364e-15   -14.078   -14.078     0.000     (0)  
   Zn(OH)3-        5.018e-20   2.636e-20   -19.299   -19.579    -0.280     (0)  
   Zn(OH)4-2       8.664e-27   6.599e-28   -26.062   -27.180    -1.118     (0)  

------------------------------Saturation indices-------------------------------

  Phase               SI** log IAP   log K(298 K,   1 atm)

  Halite           -2.92     -1.31    1.60  NaCl
  O2(g)           -47.90     35.19   83.09  O2
  Zincite          -7.61      3.72   11.33  ZnO
  Zn(OH)2          -8.48      3.72   12.20  Zn(OH)2
  Zn(OH)2(am)      -8.76      3.72   12.47  Zn(OH)2
  Zn(OH)2(beta)    -8.04      3.72   11.75  Zn(OH)2
  Zn(OH)2(epsilon)  -7.82      3.72   11.53  Zn(OH)2
  Zn(OH)2(gamma)   -8.02      3.72   11.73  Zn(OH)2
  Zn2(OH)3Cl      -13.21      1.98   15.19  Zn2(OH)3Cl
  Zn5(OH)8Cl2     -30.82      7.68   38.50  Zn5(OH)8Cl2
  ZnCl2           -14.24     -7.19    7.05  ZnCl2
  Znmetal         -39.66    -13.87   25.79  Zn
  ZnO(active)      -7.47      3.72   11.19  ZnO

**For a gas, SI = log10(fugacity). Fugacity = pressure * phi / 1 atm.
  For ideal gases, phi = 1.

------------------
End of simulation.
------------------

-------------------------------------
Reading input data for simulation 13.
-------------------------------------

	SOLUTION 11
	pH		5.0
	Cl		0.3		mol/kgw
	Na		0.3		mol/kgw
	Zn	0.200 	mmol/kgw
	Edta  0.200 	mmol/kgw
	END
-------------------------------------------
Beginning of initial solution calculations.
-------------------------------------------

Initial solution 11.	

-----------------------------Solution composition------------------------------

	Elements           Molality       Moles

	Cl                3.000e-01   3.000e-01
	Edta              2.000e-04   2.000e-04
	Na                3.000e-01   3.000e-01
	Zn                2.000e-04   2.000e-04

----------------------------Description of solution----------------------------

                                       pH  =   5.000    
                                       pe  =   4.000    
                        Activity of water  =   0.990
                 Ionic strength (mol/kgw)  =   3.004e-01
                       Mass of water (kg)  =   1.000e+00
                 Total alkalinity (eq/kg)  =   3.797e-04
                         Temperature (°C)  =  25.00
                  Electrical balance (eq)  =  -3.797e-04
 Percent error, 100*(Cat-|An|)/(Cat+|An|)  =  -0.06
                               Iterations  =   7
                                  Total H  = 1.110137e+02
                                  Total O  = 5.550683e+01

----------------------------Distribution of species----------------------------

                                               Log       Log       Log    mole V
   Species          Molality    Activity  Molality  Activity     Gamma   cm³/mol

   H+              1.363e-05   1.000e-05    -4.865    -5.000    -0.135      0.00
   OH-             1.479e-09   9.967e-10    -8.830    -9.001    -0.171     (0)  
   H2O             5.551e+01   9.898e-01     1.744    -0.004     0.000     18.07
Cl            3.000e-01
   Cl-             3.000e-01   2.200e-01    -0.523    -0.657    -0.135     (0)  
   ZnCl+           7.653e-07   5.264e-07    -6.116    -6.279    -0.163     (0)  
   ZnCl2           1.836e-07   1.836e-07    -6.736    -6.736     0.000     (0)  
   ZnCl3-          4.665e-08   3.209e-08    -7.331    -7.494    -0.163     (0)  
   ZnCl4-2         1.369e-08   3.531e-09    -7.864    -8.452    -0.588     (0)  
   ZnOHCl          6.869e-10   6.869e-10    -9.163    -9.163     0.000     (0)  
Edta          2.000e-04
   Zn(Edta)-2      1.951e-04   5.648e-05    -3.710    -4.248    -0.538     (0)  
   H(Edta)-3       2.455e-06   7.483e-09    -5.610    -8.126    -2.516     (0)  
   H2(Edta)-2      1.842e-06   1.403e-07    -5.735    -6.853    -1.118     (0)  
   ZnH(Edta)-      5.591e-07   4.101e-07    -6.252    -6.387    -0.135     (0)  
   H3(Edta)-       3.513e-09   1.845e-09    -8.454    -8.734    -0.280     (0)  
   ZnOH(Edta)-3    3.681e-10   2.262e-11    -9.434   -10.646    -1.211     (0)  
   Na(Edta)-3      3.052e-10   9.303e-13    -9.515   -12.031    -2.516     (0)  
   H4(Edta)        2.667e-12   2.667e-12   -11.574   -11.574     0.000     (0)  
   Edta-4          1.202e-12   8.435e-15   -11.920   -14.074    -2.154     (0)  
   H5(Edta)+       1.606e-15   8.435e-16   -14.794   -15.074    -0.280     (0)  
H(0)          1.321e-21
   H2              6.606e-22   7.079e-22   -21.180   -21.150     0.030     (0)  
Na            3.000e-01
   Na+             3.000e-01   2.200e-01    -0.523    -0.657    -0.135     (0)  
   Na(Edta)-3      3.052e-10   9.303e-13    -9.515   -12.031    -2.516     (0)  
O(0)          0.000e+00
   O2              0.000e+00   0.000e+00   -50.034   -50.004     0.030     (0)  
Zn            2.000e-04
   Zn(Edta)-2      1.951e-04   5.648e-05    -3.710    -4.248    -0.538     (0)  
   Zn+2            3.290e-06   9.524e-07    -5.483    -6.021    -0.538     (0)  
   ZnCl+           7.653e-07   5.264e-07    -6.116    -6.279    -0.163     (0)  
   ZnH(Edta)-      5.591e-07   4.101e-07    -6.252    -6.387    -0.135     (0)  
   ZnCl2           1.836e-07   1.836e-07    -6.736    -6.736     0.000     (0)  
   ZnCl3-          4.665e-08   3.209e-08    -7.331    -7.494    -0.163     (0)  
   ZnCl4-2         1.369e-08   3.531e-09    -7.864    -8.452    -0.588     (0)  
   ZnOHCl          6.869e-10   6.869e-10    -9.163    -9.163     0.000     (0)  
   ZnOH(Edta)-3    3.681e-10   2.262e-11    -9.434   -10.646    -1.211     (0)  
   ZnOH+           1.807e-10   9.492e-11    -9.743   -10.023    -0.280     (0)  
   Zn(OH)2         1.499e-14   1.499e-14   -13.824   -13.824     0.000     (0)  
   Zn(OH)3-        1.426e-19   7.490e-20   -18.846   -19.126    -0.280     (0)  
   Zn(OH)4-2       3.901e-26   2.972e-27   -25.409   -26.527    -1.118     (0)  

------------------------------Saturation indices-------------------------------

  Phase               SI** log IAP   log K(298 K,   1 atm)

  Halite           -2.92     -1.31    1.60  NaCl
  O2(g)           -47.10     35.99   83.09  O2
  Zincite          -7.36      3.97   11.33  ZnO
  Zn(OH)2          -8.23      3.97   12.20  Zn(OH)2
  Zn(OH)2(am)      -8.50      3.97   12.47  Zn(OH)2
  Zn(OH)2(beta)    -7.78      3.97   11.75  Zn(OH)2
  Zn(OH)2(epsilon)  -7.56      3.97   11.53  Zn(OH)2
  Zn(OH)2(gamma)   -7.76      3.97   11.73  Zn(OH)2
  Zn2(OH)3Cl      -12.90      2.29   15.19  Zn2(OH)3Cl
  Zn5(OH)8Cl2     -29.96      8.54   38.50  Zn5(OH)8Cl2
  ZnCl2           -14.39     -7.34    7.05  ZnCl2
  Znmetal         -39.81    -14.02   25.79  Zn
  ZnO(active)      -7.21      3.97   11.19  ZnO

**For a gas, SI = log10(fugacity). Fugacity = pressure * phi / 1 atm.
  For ideal gases, phi = 1.

------------------
End of simulation.
------------------

-------------------------------------
Reading input data for simulation 14.
-------------------------------------

	SOLUTION 12
	pH		5.2
	Cl		0.3		mol/kgw
	Na		0.3		mol/kgw
	Zn	0.200 	mmol/kgw
	Edta  0.200 	mmol/kgw
	END
-------------------------------------------
Beginning of initial solution calculations.
-------------------------------------------

Initial solution 12.	

-----------------------------Solution composition------------------------------

	Elements           Molality       Moles

	Cl                3.000e-01   3.000e-01
	Edta              2.000e-04   2.000e-04
	Na                3.000e-01   3.000e-01
	Zn                2.000e-04   2.000e-04

----------------------------Description of solution----------------------------

                                       pH  =   5.200    
                                       pe  =   4.000    
                        Activity of water  =   0.990
                 Ionic strength (mol/kgw)  =   3.004e-01
                       Mass of water (kg)  =   1.000e+00
                 Total alkalinity (eq/kg)  =   3.869e-04
                         Temperature (°C)  =  25.00
                  Electrical balance (eq)  =  -3.869e-04
 Percent error, 100*(Cat-|An|)/(Cat+|An|)  =  -0.06
                               Iterations  =   8
                                  Total H  = 1.110137e+02
                                  Total O  = 5.550683e+01

----------------------------Distribution of species----------------------------

                                               Log       Log       Log    mole V
   Species          Molality    Activity  Molality  Activity     Gamma   cm³/mol

   H+              8.602e-06   6.310e-06    -5.065    -5.200    -0.135      0.00
   OH-             2.344e-09   1.580e-09    -8.630    -8.801    -0.171     (0)  
   H2O             5.551e+01   9.898e-01     1.744    -0.004     0.000     18.07
Cl            3.000e-01
   Cl-             3.000e-01   2.200e-01    -0.523    -0.657    -0.135     (0)  
   ZnCl+           5.596e-07   3.849e-07    -6.252    -6.415    -0.163     (0)  
   ZnCl2           1.342e-07   1.342e-07    -6.872    -6.872     0.000     (0)  
   ZnCl3-          3.411e-08   2.346e-08    -7.467    -7.630    -0.163     (0)  
   ZnCl4-2         1.001e-08   2.582e-09    -8.000    -8.588    -0.588     (0)  
   ZnOHCl          7.959e-10   7.959e-10    -9.099    -9.099     0.000     (0)  
Edta          2.000e-04
   Zn(Edta)-2      1.965e-04   5.688e-05    -3.707    -4.245    -0.538     (0)  
   H(Edta)-3       2.133e-06   6.503e-09    -5.671    -8.187    -2.516     (0)  
   H2(Edta)-2      1.010e-06   7.693e-08    -5.996    -7.114    -1.118     (0)  
   ZnH(Edta)-      3.553e-07   2.606e-07    -6.449    -6.584    -0.135     (0)  
   H3(Edta)-       1.215e-09   6.384e-10    -8.915    -9.195    -0.280     (0)  
   ZnOH(Edta)-3    5.874e-10   3.610e-11    -9.231   -10.443    -1.211     (0)  
   Na(Edta)-3      4.203e-10   1.281e-12    -9.376   -11.892    -2.516     (0)  
   Edta-4          1.655e-12   1.162e-14   -11.781   -13.935    -2.154     (0)  
   H4(Edta)        5.823e-13   5.823e-13   -12.235   -12.235     0.000     (0)  
   H5(Edta)+       2.211e-16   1.162e-16   -15.655   -15.935    -0.280     (0)  
H(0)          5.260e-22
   H2              2.630e-22   2.818e-22   -21.580   -21.550     0.030     (0)  
Na            3.000e-01
   Na+             3.000e-01   2.200e-01    -0.523    -0.657    -0.135     (0)  
   Na(Edta)-3      4.203e-10   1.281e-12    -9.376   -11.892    -2.516     (0)  
O(0)          0.000e+00
   O2              0.000e+00   0.000e+00   -49.234   -49.204     0.030     (0)  
Zn            2.000e-04
   Zn(Edta)-2      1.965e-04   5.688e-05    -3.707    -4.245    -0.538     (0)  
   Zn+2            2.406e-06   6.963e-07    -5.619    -6.157    -0.538     (0)  
   ZnCl+           5.596e-07   3.849e-07    -6.252    -6.415    -0.163     (0)  
   ZnH(Edta)-      3.553e-07   2.606e-07    -6.449    -6.584    -0.135     (0)  
   ZnCl2           1.342e-07   1.342e-07    -6.872    -6.872     0.000     (0)  
   ZnCl3-          3.411e-08   2.346e-08    -7.467    -7.630    -0.163     (0)  
   ZnCl4-2         1.001e-08   2.582e-09    -8.000    -8.588    -0.588     (0)  
   ZnOHCl          7.959e-10   7.959e-10    -9.099    -9.099     0.000     (0)  
   ZnOH(Edta)-3    5.874e-10   3.610e-11    -9.231   -10.443    -1.211     (0)  
   ZnOH+           2.094e-10   1.100e-10    -9.679    -9.959    -0.280     (0)  
   Zn(OH)2         2.754e-14   2.754e-14   -13.560   -13.560     0.000     (0)  
   Zn(OH)3-        4.150e-19   2.180e-19   -18.382   -18.662    -0.280     (0)  
   Zn(OH)4-2       1.800e-25   1.371e-26   -24.745   -25.863    -1.118     (0)  

------------------------------Saturation indices-------------------------------

  Phase               SI** log IAP   log K(298 K,   1 atm)

  Halite           -2.92     -1.31    1.60  NaCl
  O2(g)           -46.30     36.79   83.09  O2
  Zincite          -7.10      4.24   11.33  ZnO
  Zn(OH)2          -7.97      4.23   12.20  Zn(OH)2
  Zn(OH)2(am)      -8.24      4.23   12.47  Zn(OH)2
  Zn(OH)2(beta)    -7.52      4.23   11.75  Zn(OH)2
  Zn(OH)2(epsilon)  -7.30      4.23   11.53  Zn(OH)2
  Zn(OH)2(gamma)   -7.50      4.23   11.73  Zn(OH)2
  Zn2(OH)3Cl      -12.58      2.61   15.19  Zn2(OH)3Cl
  Zn5(OH)8Cl2     -29.04      9.46   38.50  Zn5(OH)8Cl2
  ZnCl2           -14.52     -7.47    7.05  ZnCl2
  Znmetal         -39.95    -14.16   25.79  Zn
  ZnO(active)      -6.95      4.24   11.19  ZnO

**For a gas, SI = log10(fugacity). Fugacity = pressure * phi / 1 atm.
  For ideal gases, phi = 1.

------------------
End of simulation.
------------------

-------------------------------------
Reading input data for simulation 15.
-------------------------------------

	SOLUTION 13
	pH		5.4
	Cl		0.3		mol/kgw
	Na		0.3		mol/kgw
	Zn	0.200 	mmol/kgw
	Edta  0.200 	mmol/kgw
	END
-------------------------------------------
Beginning of initial solution calculations.
-------------------------------------------

Initial solution 13.	

-----------------------------Solution composition------------------------------

	Elements           Molality       Moles

	Cl                3.000e-01   3.000e-01
	Edta              2.000e-04   2.000e-04
	Na                3.000e-01   3.000e-01
	Zn                2.000e-04   2.000e-04

----------------------------Description of solution----------------------------

                                       pH  =   5.400    
                                       pe  =   4.000    
                        Activity of water  =   0.990
                 Ionic strength (mol/kgw)  =   3.004e-01
                       Mass of water (kg)  =   1.000e+00
                 Total alkalinity (eq/kg)  =   3.915e-04
                         Temperature (°C)  =  25.00
                  Electrical balance (eq)  =  -3.915e-04
 Percent error, 100*(Cat-|An|)/(Cat+|An|)  =  -0.07
                               Iterations  =   8
                                  Total H  = 1.110137e+02
                                  Total O  = 5.550683e+01

----------------------------Distribution of species----------------------------

                                               Log       Log       Log    mole V
   Species          Molality    Activity  Molality  Activity     Gamma   cm³/mol

   H+              5.428e-06   3.981e-06    -5.265    -5.400    -0.135      0.00
   OH-             3.716e-09   2.503e-09    -8.430    -8.601    -0.171     (0)  
   H2O             5.551e+01   9.898e-01     1.744    -0.004     0.000     18.07
Cl            3.000e-01
   Cl-             3.000e-01   2.200e-01    -0.523    -0.657    -0.135     (0)  
   ZnCl+           4.182e-07   2.877e-07    -6.379    -6.541    -0.163     (0)  
   ZnCl2           1.003e-07   1.003e-07    -6.999    -6.999     0.000     (0)  
   ZnCl3-          2.549e-08   1.753e-08    -7.594    -7.756    -0.163     (0)  
   ZnCl4-2         7.479e-09   1.929e-09    -8.126    -8.715    -0.588     (0)  
   ZnOHCl          9.428e-10   9.428e-10    -9.026    -9.026     0.000     (0)  
Edta          2.000e-04
   Zn(Edta)-2      1.974e-04   5.714e-05    -3.705    -4.243    -0.538     (0)  
   H(Edta)-3       1.809e-06   5.516e-09    -5.743    -8.258    -2.516     (0)  
   H2(Edta)-2      5.405e-07   4.117e-08    -6.267    -7.385    -1.118     (0)  
   ZnH(Edta)-      2.252e-07   1.652e-07    -6.647    -6.782    -0.135     (0)  
   ZnOH(Edta)-3    9.354e-10   5.748e-11    -9.029   -10.240    -1.211     (0)  
   Na(Edta)-3      5.649e-10   1.722e-12    -9.248   -11.764    -2.516     (0)  
   H3(Edta)-       4.103e-10   2.156e-10    -9.387    -9.666    -0.280     (0)  
   Edta-4          2.225e-12   1.562e-14   -11.653   -13.806    -2.154     (0)  
   H4(Edta)        1.241e-13   1.241e-13   -12.906   -12.906     0.000     (0)  
   H5(Edta)+       2.973e-17   1.562e-17   -16.527   -16.806    -0.280     (0)  
H(0)          2.094e-22
   H2              1.047e-22   1.122e-22   -21.980   -21.950     0.030     (0)  
Na            3.000e-01
   Na+             3.000e-01   2.200e-01    -0.523    -0.657    -0.135     (0)  
   Na(Edta)-3      5.649e-10   1.722e-12    -9.248   -11.764    -2.516     (0)  
O(0)          0.000e+00
   O2              0.000e+00   0.000e+00   -48.434   -48.404     0.030     (0)  
Zn            2.000e-04
   Zn(Edta)-2      1.974e-04   5.714e-05    -3.705    -4.243    -0.538     (0)  
   Zn+2            1.798e-06   5.204e-07    -5.745    -6.284    -0.538     (0)  
   ZnCl+           4.182e-07   2.877e-07    -6.379    -6.541    -0.163     (0)  
   ZnH(Edta)-      2.252e-07   1.652e-07    -6.647    -6.782    -0.135     (0)  
   ZnCl2           1.003e-07   1.003e-07    -6.999    -6.999     0.000     (0)  
   ZnCl3-          2.549e-08   1.753e-08    -7.594    -7.756    -0.163     (0)  
   ZnCl4-2         7.479e-09   1.929e-09    -8.126    -8.715    -0.588     (0)  
   ZnOHCl          9.428e-10   9.428e-10    -9.026    -9.026     0.000     (0)  
   ZnOH(Edta)-3    9.354e-10   5.748e-11    -9.029   -10.240    -1.211     (0)  
   ZnOH+           2.480e-10   1.303e-10    -9.606    -9.885    -0.280     (0)  
   Zn(OH)2         5.170e-14   5.170e-14   -13.287   -13.287     0.000     (0)  
   Zn(OH)3-        1.235e-18   6.486e-19   -17.908   -18.188    -0.280     (0)  
   Zn(OH)4-2       8.486e-25   6.465e-26   -24.071   -25.189    -1.118     (0)  

------------------------------Saturation indices-------------------------------

  Phase               SI** log IAP   log K(298 K,   1 atm)

  Halite           -2.92     -1.31    1.60  NaCl
  O2(g)           -45.50     37.59   83.09  O2
  Zincite          -6.82      4.51   11.33  ZnO
  Zn(OH)2          -7.69      4.51   12.20  Zn(OH)2
  Zn(OH)2(am)      -7.97      4.51   12.47  Zn(OH)2
  Zn(OH)2(beta)    -7.25      4.51   11.75  Zn(OH)2
  Zn(OH)2(epsilon)  -7.03      4.51   11.53  Zn(OH)2
  Zn(OH)2(gamma)   -7.23      4.51   11.73  Zn(OH)2
  Zn2(OH)3Cl      -12.23      2.96   15.19  Zn2(OH)3Cl
  Zn5(OH)8Cl2     -28.07     10.43   38.50  Zn5(OH)8Cl2
  ZnCl2           -14.65     -7.60    7.05  ZnCl2
  Znmetal         -40.07    -14.28   25.79  Zn
  ZnO(active)      -6.68      4.51   11.19  ZnO

**For a gas, SI = log10(fugacity). Fugacity = pressure * phi / 1 atm.
  For ideal gases, phi = 1.

------------------
End of simulation.
------------------

-------------------------------------
Reading input data for simulation 16.
-------------------------------------

	SOLUTION 14
	pH		5.6
	Cl		0.3		mol/kgw
	Na		0.3		mol/kgw
	Zn	0.200 	mmol/kgw
	Edta  0.200 	mmol/kgw
	END
-------------------------------------------
Beginning of initial solution calculations.
-------------------------------------------

Initial solution 14.	

-----------------------------Solution composition------------------------------

	Elements           Molality       Moles

	Cl                3.000e-01   3.000e-01
	Edta              2.000e-04   2.000e-04
	Na                3.000e-01   3.000e-01
	Zn                2.000e-04   2.000e-04

----------------------------Description of solution----------------------------

                                       pH  =   5.600    
                                       pe  =   4.000    
                        Activity of water  =   0.990
                 Ionic strength (mol/kgw)  =   3.004e-01
                       Mass of water (kg)  =   1.000e+00
                 Total alkalinity (eq/kg)  =   3.944e-04
                         Temperature (°C)  =  25.00
                  Electrical balance (eq)  =  -3.944e-04
 Percent error, 100*(Cat-|An|)/(Cat+|An|)  =  -0.07
                               Iterations  =   8
                                  Total H  = 1.110137e+02
                                  Total O  = 5.550683e+01

----------------------------Distribution of species----------------------------

                                               Log       Log       Log    mole V
   Species          Molality    Activity  Molality  Activity     Gamma   cm³/mol

   H+              3.425e-06   2.512e-06    -5.465    -5.600    -0.135      0.00
   OH-             5.889e-09   3.968e-09    -8.230    -8.401    -0.171     (0)  
   H2O             5.551e+01   9.898e-01     1.744    -0.004     0.000     18.07
Cl            3.000e-01
   Cl-             3.000e-01   2.200e-01    -0.523    -0.657    -0.135     (0)  
   ZnCl+           3.183e-07   2.189e-07    -6.497    -6.660    -0.163     (0)  
   ZnCl2           7.635e-08   7.635e-08    -7.117    -7.117     0.000     (0)  
   ZnCl3-          1.940e-08   1.334e-08    -7.712    -7.875    -0.163     (0)  
   ZnCl4-2         5.692e-09   1.468e-09    -8.245    -8.833    -0.588     (0)  
   ZnOHCl          1.137e-09   1.137e-09    -8.944    -8.944     0.000     (0)  
Edta          2.000e-04
   Zn(Edta)-2      1.981e-04   5.733e-05    -3.703    -4.242    -0.538     (0)  
   H(Edta)-3       1.505e-06   4.588e-09    -5.822    -8.338    -2.516     (0)  
   H2(Edta)-2      2.837e-07   2.161e-08    -6.547    -7.665    -1.118     (0)  
   ZnH(Edta)-      1.426e-07   1.046e-07    -6.846    -6.981    -0.135     (0)  
   ZnOH(Edta)-3    1.487e-09   9.140e-11    -8.828   -10.039    -1.211     (0)  
   Na(Edta)-3      7.448e-10   2.271e-12    -9.128   -11.644    -2.516     (0)  
   H3(Edta)-       1.359e-10   7.139e-11    -9.867   -10.146    -0.280     (0)  
   Edta-4          2.933e-12   2.059e-14   -11.533   -13.686    -2.154     (0)  
   H4(Edta)        2.592e-14   2.592e-14   -13.586   -13.586     0.000     (0)  
   H5(Edta)+       3.919e-18   2.059e-18   -17.407   -17.686    -0.280     (0)  
H(0)          8.337e-23
   H2              4.168e-23   4.467e-23   -22.380   -22.350     0.030     (0)  
Na            3.000e-01
   Na+             3.000e-01   2.200e-01    -0.523    -0.657    -0.135     (0)  
   Na(Edta)-3      7.448e-10   2.271e-12    -9.128   -11.644    -2.516     (0)  
O(0)          0.000e+00
   O2              0.000e+00   0.000e+00   -47.634   -47.604     0.030     (0)  
Zn            2.000e-04
   Zn(Edta)-2      1.981e-04   5.733e-05    -3.703    -4.242    -0.538     (0)  
   Zn+2            1.368e-06   3.961e-07    -5.864    -6.402    -0.538     (0)  
   ZnCl+           3.183e-07   2.189e-07    -6.497    -6.660    -0.163     (0)  
   ZnH(Edta)-      1.426e-07   1.046e-07    -6.846    -6.981    -0.135     (0)  
   ZnCl2           7.635e-08   7.635e-08    -7.117    -7.117     0.000     (0)  
   ZnCl3-          1.940e-08   1.334e-08    -7.712    -7.875    -0.163     (0)  
   ZnCl4-2         5.692e-09   1.468e-09    -8.245    -8.833    -0.588     (0)  
   ZnOH(Edta)-3    1.487e-09   9.140e-11    -8.828   -10.039    -1.211     (0)  
   ZnOHCl          1.137e-09   1.137e-09    -8.944    -8.944     0.000     (0)  
   ZnOH+           2.991e-10   1.571e-10    -9.524    -9.804    -0.280     (0)  
   Zn(OH)2         9.882e-14   9.882e-14   -13.005   -13.005     0.000     (0)  
   Zn(OH)3-        3.741e-18   1.965e-18   -17.427   -17.707    -0.280     (0)  
   Zn(OH)4-2       4.075e-24   3.104e-25   -23.390   -24.508    -1.118     (0)  

------------------------------Saturation indices-------------------------------

  Phase               SI** log IAP   log K(298 K,   1 atm)

  Halite           -2.92     -1.31    1.60  NaCl
  O2(g)           -44.70     38.39   83.09  O2
  Zincite          -6.54      4.79   11.33  ZnO
[...]
   H3(Edta)-       6.705e-20   3.523e-20   -19.174   -19.453    -0.280     (0)  
   H4(Edta)        2.027e-27   2.027e-27   -26.693   -26.693     0.000     (0)  
   H5(Edta)+       4.858e-35   2.552e-35   -34.314   -34.593    -0.280     (0)  
H(0)          2.094e-30
   H2              1.047e-30   1.122e-30   -29.980   -29.950     0.030     (0)  
Na            3.000e-01
   Na+             3.000e-01   2.200e-01    -0.523    -0.657    -0.135     (0)  
   Na(Edta)-3      9.234e-08   2.814e-10    -7.035    -9.551    -2.516     (0)  
O(0)          7.362e-33
   O2              3.681e-33   3.945e-33   -32.434   -32.404     0.030     (0)  
Zn            2.000e-04
   Zn(Edta)-2      1.908e-04   5.524e-05    -3.719    -4.258    -0.538     (0)  
   ZnOH(Edta)-3    9.042e-06   5.556e-07    -5.044    -6.255    -1.211     (0)  
   ZnOHCl          5.577e-08   5.577e-08    -7.254    -7.254     0.000     (0)  
   Zn(OH)2         3.058e-08   3.058e-08    -7.515    -7.515     0.000     (0)  
   ZnOH+           1.467e-08   7.707e-09    -7.834    -8.113    -0.280     (0)  
   Zn+2            1.064e-08   3.079e-09    -7.973    -8.512    -0.538     (0)  
   Zn(OH)3-        7.304e-09   3.837e-09    -8.136    -8.416    -0.280     (0)  
   ZnCl+           2.474e-09   1.702e-09    -8.607    -8.769    -0.163     (0)  
   ZnCl2           5.935e-10   5.935e-10    -9.227    -9.227     0.000     (0)  
   ZnCl3-          1.508e-10   1.037e-10    -9.822    -9.984    -0.163     (0)  
   Zn(OH)4-2       5.021e-11   3.824e-12   -10.299   -11.417    -1.118     (0)  
   ZnCl4-2         4.425e-11   1.141e-11   -10.354   -10.943    -0.588     (0)  
   ZnH(Edta)-      2.177e-11   1.597e-11   -10.662   -10.797    -0.135     (0)  

------------------------------Saturation indices-------------------------------

  Phase               SI** log IAP   log K(298 K,   1 atm)

  Halite           -2.92     -1.31    1.60  NaCl
  O2(g)           -29.50     53.59   83.09  O2
  Zincite          -1.05     10.28   11.33  ZnO
  Zn(OH)2          -1.92     10.28   12.20  Zn(OH)2
  Zn(OH)2(am)      -2.19     10.28   12.47  Zn(OH)2
  Zn(OH)2(beta)    -1.47     10.28   11.75  Zn(OH)2
  Zn(OH)2(epsilon)  -1.25     10.28   11.53  Zn(OH)2
  Zn(OH)2(gamma)   -1.45     10.28   11.73  Zn(OH)2
  Zn2(OH)3Cl       -4.69     10.51   15.19  Zn2(OH)3Cl
  Zn5(OH)8Cl2      -7.21     31.29   38.50  Zn5(OH)8Cl2
  ZnCl2           -16.88     -9.83    7.05  ZnCl2
  Znmetal         -42.30    -16.51   25.79  Zn
  ZnO(active)      -0.90     10.28   11.19  ZnO

**For a gas, SI = log10(fugacity). Fugacity = pressure * phi / 1 atm.
  For ideal gases, phi = 1.

------------------
End of simulation.
------------------

-------------------------------------
Reading input data for simulation 36.
-------------------------------------

	SOLUTION 34
	pH		9.6
	Cl		0.3		mol/kgw
	Na		0.3		mol/kgw
	Zn	0.200 	mmol/kgw
	Edta  0.200 	mmol/kgw
	END
-------------------------------------------
Beginning of initial solution calculations.
-------------------------------------------

Initial solution 34.	

-----------------------------Solution composition------------------------------

	Elements           Molality       Moles

	Cl                3.000e-01   3.000e-01
	Edta              2.000e-04   2.000e-04
	Na                3.000e-01   3.000e-01
	Zn                2.000e-04   2.000e-04

----------------------------Description of solution----------------------------

                                       pH  =   9.600    
                                       pe  =   4.000    
                        Activity of water  =   0.990
                 Ionic strength (mol/kgw)  =   3.005e-01
                       Mass of water (kg)  =   1.000e+00
                 Total alkalinity (eq/kg)  =   4.731e-04
                         Temperature (°C)  =  25.00
                  Electrical balance (eq)  =  -4.731e-04
 Percent error, 100*(Cat-|An|)/(Cat+|An|)  =  -0.08
                               Iterations  =   6
                                  Total H  = 1.110137e+02
                                  Total O  = 5.550691e+01

----------------------------Distribution of species----------------------------

                                               Log       Log       Log    mole V
   Species          Molality    Activity  Molality  Activity     Gamma   cm³/mol

   OH-             5.889e-05   3.968e-05    -4.230    -4.401    -0.171     (0)  
   H+              3.425e-10   2.512e-10    -9.465    -9.600    -0.135      0.00
   H2O             5.551e+01   9.898e-01     1.744    -0.004     0.000     18.07
Cl            3.000e-01
   Cl-             3.000e-01   2.200e-01    -0.523    -0.657    -0.135     (0)  
   ZnOHCl          6.048e-08   6.048e-08    -7.218    -7.218     0.000     (0)  
   ZnCl+           1.693e-09   1.164e-09    -8.771    -8.934    -0.163     (0)  
   ZnCl2           4.060e-10   4.060e-10    -9.391    -9.391     0.000     (0)  
   ZnCl3-          1.032e-10   7.097e-11    -9.986   -10.149    -0.163     (0)  
   ZnCl4-2         3.027e-11   7.809e-12   -10.519   -11.107    -0.588     (0)  
Edta          2.000e-04
   Zn(Edta)-2      1.859e-04   5.380e-05    -3.731    -4.269    -0.538     (0)  
   ZnOH(Edta)-3    1.396e-05   8.577e-07    -4.855    -6.067    -1.211     (0)  
   Na(Edta)-3      1.315e-07   4.006e-10    -6.881    -9.397    -2.516     (0)  
   H(Edta)-3       2.657e-08   8.096e-11    -7.576   -10.092    -2.516     (0)  
   Edta-4          5.176e-10   3.633e-12    -9.286   -11.440    -2.154     (0)  
   ZnH(Edta)-      1.338e-11   9.813e-12   -10.874   -11.008    -0.135     (0)  
   H2(Edta)-2      5.006e-13   3.813e-14   -12.300   -13.419    -1.118     (0)  
   H3(Edta)-       2.398e-20   1.260e-20   -19.620   -19.900    -0.280     (0)  
   H4(Edta)        4.573e-28   4.573e-28   -27.340   -27.340     0.000     (0)  
   H5(Edta)+       6.915e-36   3.633e-36   -35.160   -35.440    -0.280     (0)  
H(0)          8.336e-31
   H2              4.168e-31   4.467e-31   -30.380   -30.350     0.030     (0)  
Na            3.000e-01
   Na+             3.000e-01   2.200e-01    -0.523    -0.657    -0.135     (0)  
   Na(Edta)-3      1.315e-07   4.006e-10    -6.881    -9.397    -2.516     (0)  
O(0)          4.645e-32
   O2              2.323e-32   2.489e-32   -31.634   -31.604     0.030     (0)  
Zn            2.000e-04
   Zn(Edta)-2      1.859e-04   5.380e-05    -3.731    -4.269    -0.538     (0)  
   ZnOH(Edta)-3    1.396e-05   8.577e-07    -4.855    -6.067    -1.211     (0)  
   ZnOHCl          6.048e-08   6.048e-08    -7.218    -7.218     0.000     (0)  
   Zn(OH)2         5.256e-08   5.256e-08    -7.279    -7.279     0.000     (0)  
   Zn(OH)3-        1.990e-08   1.045e-08    -7.701    -7.981    -0.280     (0)  
   ZnOH+           1.591e-08   8.358e-09    -7.798    -8.078    -0.280     (0)  
   Zn+2            7.278e-09   2.106e-09    -8.138    -8.676    -0.538     (0)  
   ZnCl+           1.693e-09   1.164e-09    -8.771    -8.934    -0.163     (0)  
   ZnCl2           4.060e-10   4.060e-10    -9.391    -9.391     0.000     (0)  
   Zn(OH)4-2       2.168e-10   1.651e-11    -9.664   -10.782    -1.118     (0)  
   ZnCl3-          1.032e-10   7.097e-11    -9.986   -10.149    -0.163     (0)  
   ZnCl4-2         3.027e-11   7.809e-12   -10.519   -11.107    -0.588     (0)  
   ZnH(Edta)-      1.338e-11   9.813e-12   -10.874   -11.008    -0.135     (0)  

------------------------------Saturation indices-------------------------------

  Phase               SI** log IAP   log K(298 K,   1 atm)

  Halite           -2.92     -1.31    1.60  NaCl
  O2(g)           -28.70     54.39   83.09  O2
  Zincite          -0.81     10.52   11.33  ZnO
  Zn(OH)2          -1.69     10.51   12.20  Zn(OH)2
  Zn(OH)2(am)      -1.96     10.51   12.47  Zn(OH)2
  Zn(OH)2(beta)    -1.24     10.51   11.75  Zn(OH)2
  Zn(OH)2(epsilon)  -1.02     10.51   11.53  Zn(OH)2
  Zn(OH)2(gamma)   -1.22     10.51   11.73  Zn(OH)2
  Zn2(OH)3Cl       -4.41     10.78   15.19  Zn2(OH)3Cl
  Zn5(OH)8Cl2      -6.43     32.07   38.50  Zn5(OH)8Cl2
  ZnCl2           -17.04     -9.99    7.05  ZnCl2
  Znmetal         -42.47    -16.68   25.79  Zn
  ZnO(active)      -0.67     10.52   11.19  ZnO

**For a gas, SI = log10(fugacity). Fugacity = pressure * phi / 1 atm.
  For ideal gases, phi = 1.

------------------
End of simulation.
------------------

-------------------------------------
Reading input data for simulation 37.
-------------------------------------

	SOLUTION 35
	pH		9.8
	Cl		0.3		mol/kgw
	Na		0.3		mol/kgw
	Zn	0.200 	mmol/kgw
	Edta  0.200 	mmol/kgw
	END
-------------------------------------------
Beginning of initial solution calculations.
-------------------------------------------

Initial solution 35.	

-----------------------------Solution composition------------------------------

	Elements           Molality       Moles

	Cl                3.000e-01   3.000e-01
	Edta              2.000e-04   2.000e-04
	Na                3.000e-01   3.000e-01
	Zn                2.000e-04   2.000e-04

----------------------------Description of solution----------------------------

                                       pH  =   9.800    
                                       pe  =   4.000    
                        Activity of water  =   0.990
                 Ionic strength (mol/kgw)  =   3.005e-01
                       Mass of water (kg)  =   1.000e+00
                 Total alkalinity (eq/kg)  =   5.150e-04
                         Temperature (°C)  =  25.00
                  Electrical balance (eq)  =  -5.150e-04
 Percent error, 100*(Cat-|An|)/(Cat+|An|)  =  -0.09
                               Iterations  =   6
                                  Total H  = 1.110138e+02
                                  Total O  = 5.550695e+01

----------------------------Distribution of species----------------------------

                                               Log       Log       Log    mole V
   Species          Molality    Activity  Molality  Activity     Gamma   cm³/mol

   OH-             9.333e-05   6.288e-05    -4.030    -4.201    -0.171     (0)  
   H+              2.161e-10   1.585e-10    -9.665    -9.800    -0.135      0.00
   H2O             5.551e+01   9.898e-01     1.744    -0.004     0.000     18.07
Cl            3.000e-01
   Cl-             3.000e-01   2.200e-01    -0.523    -0.657    -0.135     (0)  
   ZnOHCl          6.186e-08   6.186e-08    -7.209    -7.209     0.000     (0)  
   ZnCl+           1.092e-09   7.514e-10    -8.962    -9.124    -0.163     (0)  
   ZnCl2           2.620e-10   2.620e-10    -9.582    -9.582     0.000     (0)  
   ZnCl3-          6.659e-11   4.580e-11   -10.177   -10.339    -0.163     (0)  
   ZnCl4-2         1.954e-11   5.040e-12   -10.709   -11.298    -0.588     (0)  
Edta          2.000e-04
   Zn(Edta)-2      1.785e-04   5.167e-05    -3.748    -4.287    -0.538     (0)  
   ZnOH(Edta)-3    2.125e-05   1.306e-06    -4.673    -5.884    -1.211     (0)  
   Na(Edta)-3      1.957e-07   5.962e-10    -6.708    -9.225    -2.516     (0)  
   H(Edta)-3       2.496e-08   7.602e-11    -7.603   -10.119    -2.516     (0)  
   Edta-4          7.704e-10   5.407e-12    -9.113   -11.267    -2.154     (0)  
   ZnH(Edta)-      8.107e-12   5.947e-12   -11.091   -11.226    -0.135     (0)  
   H2(Edta)-2      2.967e-13   2.259e-14   -12.528   -13.646    -1.118     (0)  
   H3(Edta)-       8.964e-21   4.709e-21   -20.047   -20.327    -0.280     (0)  
   H4(Edta)        1.079e-28   1.079e-28   -27.967   -27.967     0.000     (0)  
   H5(Edta)+       1.029e-36   5.407e-37   -35.987   -36.267    -0.280     (0)  
H(0)          3.319e-31
   H2              1.659e-31   1.778e-31   -30.780   -30.750     0.030     (0)  
Na            3.000e-01
   Na+             3.000e-01   2.200e-01    -0.523    -0.657    -0.135     (0)  
   Na(Edta)-3      1.957e-07   5.962e-10    -6.708    -9.225    -2.516     (0)  
O(0)          2.931e-31
   O2              1.465e-31   1.570e-31   -30.834   -30.804     0.030     (0)  
Zn            2.000e-04
   Zn(Edta)-2      1.785e-04   5.167e-05    -3.748    -4.287    -0.538     (0)  
   ZnOH(Edta)-3    2.125e-05   1.306e-06    -4.673    -5.884    -1.211     (0)  
   Zn(OH)2         8.520e-08   8.520e-08    -7.070    -7.070     0.000     (0)  
   ZnOHCl          6.186e-08   6.186e-08    -7.209    -7.209     0.000     (0)  
   Zn(OH)3-        5.112e-08   2.685e-08    -7.291    -7.571    -0.280     (0)  
   ZnOH+           1.627e-08   8.549e-09    -7.789    -8.068    -0.280     (0)  
   Zn+2            4.697e-09   1.359e-09    -8.328    -8.867    -0.538     (0)  
   ZnCl+           1.092e-09   7.514e-10    -8.962    -9.124    -0.163     (0)  
   Zn(OH)4-2       8.828e-10   6.723e-11    -9.054   -10.172    -1.118     (0)  
   ZnCl2           2.620e-10   2.620e-10    -9.582    -9.582     0.000     (0)  
   ZnCl3-          6.659e-11   4.580e-11   -10.177   -10.339    -0.163     (0)  
   ZnCl4-2         1.954e-11   5.040e-12   -10.709   -11.298    -0.588     (0)  
   ZnH(Edta)-      8.107e-12   5.947e-12   -11.091   -11.226    -0.135     (0)  

------------------------------Saturation indices-------------------------------

  Phase               SI** log IAP   log K(298 K,   1 atm)

  Halite           -2.92     -1.31    1.60  NaCl
  O2(g)           -27.90     55.19   83.09  O2
  Zincite          -0.61     10.73   11.33  ZnO
  Zn(OH)2          -1.48     10.72   12.20  Zn(OH)2
  Zn(OH)2(am)      -1.75     10.72   12.47  Zn(OH)2
  Zn(OH)2(beta)    -1.03     10.72   11.75  Zn(OH)2
  Zn(OH)2(epsilon)  -0.81     10.72   11.53  Zn(OH)2
  Zn(OH)2(gamma)   -1.01     10.72   11.73  Zn(OH)2
  Zn2(OH)3Cl       -4.20     11.00   15.19  Zn2(OH)3Cl
  Zn5(OH)8Cl2      -5.78     32.72   38.50  Zn5(OH)8Cl2
  ZnCl2           -17.23    -10.18    7.05  ZnCl2
  Znmetal         -42.66    -16.87   25.79  Zn
  ZnO(active)      -0.46     10.73   11.19  ZnO

**For a gas, SI = log10(fugacity). Fugacity = pressure * phi / 1 atm.
  For ideal gases, phi = 1.

------------------
End of simulation.
------------------

-------------------------------------
Reading input data for simulation 38.
-------------------------------------

	SOLUTION 36
	pH		10.0
	Cl		0.3		mol/kgw
	Na		0.3		mol/kgw
	Zn	0.200 	mmol/kgw
	Edta  0.200 	mmol/kgw
	END
-------------------------------------------
Beginning of initial solution calculations.
-------------------------------------------

Initial solution 36.	

-----------------------------Solution composition------------------------------

	Elements           Molality       Moles

	Cl                3.000e-01   3.000e-01
	Edta              2.000e-04   2.000e-04
	Na                3.000e-01   3.000e-01
	Zn                2.000e-04   2.000e-04

----------------------------Description of solution----------------------------

                                       pH  =  10.000    
                                       pe  =   4.000    
                        Activity of water  =   0.990
                 Ionic strength (mol/kgw)  =   3.006e-01
                       Mass of water (kg)  =   1.000e+00
                 Total alkalinity (eq/kg)  =   5.803e-04
                         Temperature (°C)  =  25.00
                  Electrical balance (eq)  =  -5.803e-04
 Percent error, 100*(Cat-|An|)/(Cat+|An|)  =  -0.10
                               Iterations  =   6
                                  Total H  = 1.110138e+02
                                  Total O  = 5.550701e+01

----------------------------Distribution of species----------------------------

                                               Log       Log       Log    mole V
   Species          Molality    Activity  Molality  Activity     Gamma   cm³/mol

   OH-             1.479e-04   9.967e-05    -3.830    -4.001    -0.172     (0)  
   H+              1.363e-10   1.000e-10    -9.865   -10.000    -0.135      0.00
   H2O             5.551e+01   9.898e-01     1.744    -0.004     0.000     18.07
Cl            3.000e-01
   Cl-             3.000e-01   2.200e-01    -0.523    -0.657    -0.135     (0)  
   ZnOHCl          5.893e-08   5.893e-08    -7.230    -7.230     0.000     (0)  
   ZnCl+           6.566e-10   4.516e-10    -9.183    -9.345    -0.163     (0)  
   ZnCl2           1.575e-10   1.575e-10    -9.803    -9.803     0.000     (0)  
   ZnCl3-          4.003e-11   2.753e-11   -10.398   -10.560    -0.163     (0)  
   ZnCl4-2         1.174e-11   3.029e-12   -10.930   -11.519    -0.589     (0)  
Edta          2.000e-04
   Zn(Edta)-2      1.680e-04   4.862e-05    -3.775    -4.313    -0.538     (0)  
   ZnOH(Edta)-3    3.169e-05   1.947e-06    -4.499    -5.711    -1.212     (0)  
   Na(Edta)-3      3.066e-07   9.333e-10    -6.513    -9.030    -2.516     (0)  
   H(Edta)-3       2.466e-08   7.508e-11    -7.608   -10.124    -2.516     (0)  
   Edta-4          1.206e-09   8.463e-12    -8.919   -11.072    -2.154     (0)  
   ZnH(Edta)-      4.813e-12   3.530e-12   -11.318   -11.452    -0.135     (0)  
   H2(Edta)-2      1.849e-13   1.408e-14   -12.733   -13.851    -1.118     (0)  
   H3(Edta)-       3.525e-21   1.852e-21   -20.453   -20.732    -0.280     (0)  
   H4(Edta)        2.676e-29   2.676e-29   -28.572   -28.572     0.000     (0)  
   H5(Edta)+       1.611e-37   8.463e-38   -36.793   -37.072    -0.280     (0)  
H(0)          1.321e-31
   H2              6.606e-32   7.079e-32   -31.180   -31.150     0.030     (0)  
Na            3.000e-01
   Na+             3.000e-01   2.200e-01    -0.523    -0.657    -0.135     (0)  
   Na(Edta)-3      3.066e-07   9.333e-10    -6.513    -9.030    -2.516     (0)  
O(0)          1.849e-30
   O2              9.246e-31   9.909e-31   -30.034   -30.004     0.030     (0)  
Zn            2.000e-04
   Zn(Edta)-2      1.680e-04   4.862e-05    -3.775    -4.313    -0.538     (0)  
   ZnOH(Edta)-3    3.169e-05   1.947e-06    -4.499    -5.711    -1.212     (0)  
   Zn(OH)2         1.286e-07   1.286e-07    -6.891    -6.891     0.000     (0)  
   Zn(OH)3-        1.223e-07   6.426e-08    -6.912    -7.192    -0.280     (0)  
   ZnOHCl          5.893e-08   5.893e-08    -7.230    -7.230     0.000     (0)  
   ZnOH+           1.550e-08   8.144e-09    -7.810    -8.089    -0.280     (0)  
   Zn(OH)4-2       3.349e-09   2.550e-10    -8.475    -9.594    -1.118     (0)  
   Zn+2            2.823e-09   8.171e-10    -8.549    -9.088    -0.538     (0)  
   ZnCl+           6.566e-10   4.516e-10    -9.183    -9.345    -0.163     (0)  
   ZnCl2           1.575e-10   1.575e-10    -9.803    -9.803     0.000     (0)  
   ZnCl3-          4.003e-11   2.753e-11   -10.398   -10.560    -0.163     (0)  
   ZnCl4-2         1.174e-11   3.029e-12   -10.930   -11.519    -0.589     (0)  
   ZnH(Edta)-      4.813e-12   3.530e-12   -11.318   -11.452    -0.135     (0)  

------------------------------Saturation indices-------------------------------

  Phase               SI** log IAP   log K(298 K,   1 atm)

  Halite           -2.92     -1.31    1.60  NaCl
  O2(g)           -27.10     55.99   83.09  O2
  Zincite          -0.43     10.91   11.33  ZnO
  Zn(OH)2          -1.30     10.90   12.20  Zn(OH)2
  Zn(OH)2(am)      -1.57     10.90   12.47  Zn(OH)2
  Zn(OH)2(beta)    -0.85     10.90   11.75  Zn(OH)2
  Zn(OH)2(epsilon)  -0.63     10.90   11.53  Zn(OH)2
  Zn(OH)2(gamma)   -0.83     10.90   11.73  Zn(OH)2
  Zn2(OH)3Cl       -4.04     11.15   15.19  Zn2(OH)3Cl
  Zn5(OH)8Cl2      -5.29     33.21   38.50  Zn5(OH)8Cl2
  ZnCl2           -17.45    -10.40    7.05  ZnCl2
  Znmetal         -42.88    -17.09   25.79  Zn
  ZnO(active)      -0.28     10.91   11.19  ZnO

**For a gas, SI = log10(fugacity). Fugacity = pressure * phi / 1 atm.
  For ideal gases, phi = 1.

------------------
End of simulation.
------------------

-------------------------------------
Reading input data for simulation 39.
-------------------------------------

----------------------------------
End of Run after 0.064931 Seconds.
----------------------------------

